
  EPA STORM WATER MANAGEMENT MODEL - VERSION 5.1 (Build 5.1.013)
  --------------------------------------------------------------

  EPASWMM-FEWS Test 
  
  WARNING 03: negative offset ignored for Link C1
  WARNING 03: negative offset ignored for Link C1
  WARNING 03: negative offset ignored for Link C2
  WARNING 03: negative offset ignored for Link C2
  WARNING 03: negative offset ignored for Link C4
  WARNING 03: negative offset ignored for Link C3
  WARNING 03: negative offset ignored for Link C3
  WARNING 10: crest elevation raised to downstream invert for regulator Link 2
  
  *************
  Element Count
  *************
  Number of rain gages ...... 11
  Number of subcatchments ... 11
  Number of nodes ........... 6
  Number of links ........... 5
  Number of pollutants ...... 0
  Number of land uses ....... 0
  
  
  ****************
  Raingage Summary
  ****************
                                                      Data       Recording
  Name                 Data Source                    Type       Interval 
  ------------------------------------------------------------------------
  DON_3                model/rain.dat                
  DON_1                model/rain.dat                
  DON_2                model/rain.dat                
  DON_4                model/rain.dat                
  DON_5                model/rain.dat                
  DON_6                model/rain.dat                
  DON_7                model/rain.dat                
  DON_8                model/rain.dat                
  DON_9                model/rain.dat                
  DON_10               model/rain.dat                
  DON_11               model/rain.dat                
  
  
  ********************
  Subcatchment Summary
  ********************
  Name                       Area     Width   %Imperv    %Slope Rain Gage            Outlet              
  -----------------------------------------------------------------------------------------------------------
  DON_1                      4.00    400.00     50.00    0.5000 DON_1                J1                  
  DON_3                      4.00    400.00     25.00    0.5000 DON_3                J3                  
  DON_4                      4.00    400.00     50.00    0.5000 DON_2                J2                  
  DON_5                      4.00    400.00     50.00    0.5000 DON_5                J2                  
  DON_6                      4.00    400.00     50.00    0.5000 DON_6                J2                  
  DON_7                      4.00    400.00     50.00    0.5000 DON_7                J2                  
  DON_8                      4.00    400.00     50.00    0.5000 DON_8                J2                  
  DON_9                      4.00    400.00     50.00    0.5000 DON_9                J2                  
  DON_10                     4.00    400.00     50.00    0.5000 DON_10               J2                  
  DON_11                     4.00    400.00     50.00    0.5000 DON_11               J2                  
  DON_2                      4.00    400.00     50.00    0.5000 DON_2                J2                  
  
  
  ************
  Node Summary
  ************
                                           Invert      Max.    Ponded    External
  Name                 Type                 Elev.     Depth      Area    Inflow  
  -------------------------------------------------------------------------------
  J1                   JUNCTION             96.00      4.00       0.0
  J2                   JUNCTION             90.00      4.00       0.0
  J3                   JUNCTION             93.00      4.00       0.0
  J4                   JUNCTION             88.00      4.00       0.0
  Out1                 OUTFALL              85.00      0.00       0.0
  Dam                  STORAGE               0.00      4.00       0.0
  
  
  ************
  Link Summary
  ************
  Name             From Node        To Node          Type            Length    %Slope Roughness
  ---------------------------------------------------------------------------------------------
  C1               J1               J2               CONDUIT          400.0    1.5002    0.0100
  C2               J2               J4               CONDUIT          400.0    0.5000    0.0100
  C4               J4               Dam              CONDUIT          400.0   22.5525    0.0100
  C3               J3               J4               CONDUIT          400.0    1.2501    0.0100
  2                Dam              Out1             OUTLET      
  
  
  *********************
  Cross Section Summary
  *********************
                                        Full     Full     Hyd.     Max.   No. of     Full
  Conduit          Shape               Depth     Area     Rad.    Width  Barrels     Flow
  ---------------------------------------------------------------------------------------
  C1               CIRCULAR             1.00     0.79     0.25     1.00        1     5.67
  C2               CIRCULAR             1.00     0.79     0.25     1.00        1     3.28
  C4               CIRCULAR             1.50     1.77     0.38     1.50        1    64.85
  C3               CIRCULAR             1.00     0.79     0.25     1.00        1     5.18
  
  
  
  *********************
  Rainfall File Summary
  *********************
  Station    First        Last         Recording   Periods    Periods    Periods
  ID         Date         Date         Frequency  w/Precip    Missing    Malfunc.
  -------------------------------------------------------------------------------
  DON_3      03/19/2020   03/20/2020      60 min        25          0          0
  DON_1      03/19/2020   03/20/2020      60 min        25          0          0
  DON_2      03/19/2020   03/20/2020      60 min        25          0          0
  DON_4      03/19/2020   03/20/2020      60 min        25          0          0
  DON_5      03/19/2020   03/20/2020      60 min        25          0          0
  DON_6      03/19/2020   03/20/2020      60 min        25          0          0
  DON_7      03/19/2020   03/20/2020      60 min        25          0          0
  DON_8      03/19/2020   03/20/2020      60 min        25          0          0
  DON_9      03/19/2020   03/20/2020      60 min        25          0          0
  DON_10     03/19/2020   03/20/2020      60 min        25          0          0
  DON_11     03/19/2020   03/20/2020      60 min        25          0          0

  
  *********************************************************
  NOTE: The summary statistics displayed in this report are
  based on results found at every computational time step,  
  not just on results from each reporting time step.
  *********************************************************
  
  ****************
  Analysis Options
  ****************
  Flow Units ............... CFS
  Process Models:
    Rainfall/Runoff ........ YES
    RDII ................... NO
    Snowmelt ............... NO
    Groundwater ............ NO
    Flow Routing ........... YES
    Ponding Allowed ........ YES
    Water Quality .......... NO
  Infiltration Method ...... MODIFIED_GREEN_AMPT
  Flow Routing Method ...... DYNWAVE
  Surcharge Method ......... EXTRAN
  Starting Date ............ 03/18/2020 20:00:00
  Ending Date .............. 03/19/2020 20:00:00
  Antecedent Dry Days ...... 0.0
  Report Time Step ......... 00:15:00
  Wet Time Step ............ 00:01:00
  Dry Time Step ............ 01:00:00
  Routing Time Step ........ 1.00 sec
  Variable Time Step ....... YES
  Maximum Trials ........... 8
  Number of Threads ........ 1
  Head Tolerance ........... 0.001500 ft
  
  
  *********************
  Control Actions Taken
  *********************

  
  **************************        Volume         Depth
  Runoff Quantity Continuity     acre-feet        inches
  **************************     ---------       -------
  Total Precipitation ......         4.114         1.122
  Evaporation Loss .........         0.000         0.000
  Infiltration Loss ........         2.151         0.587
  Surface Runoff ...........         1.860         0.507
  Final Storage ............         0.104         0.028
  Continuity Error (%) .....        -0.021
  
  
  **************************        Volume        Volume
  Flow Routing Continuity        acre-feet      10^6 gal
  **************************     ---------     ---------
  Dry Weather Inflow .......         0.000         0.000
  Wet Weather Inflow .......         1.859         0.606
  Groundwater Inflow .......         0.000         0.000
  RDII Inflow ..............         0.000         0.000
  External Inflow ..........         0.000         0.000
  External Outflow .........         0.000         0.000
  Flooding Loss ............         1.834         0.598
  Evaporation Loss .........         0.000         0.000
  Exfiltration Loss ........         0.000         0.000
  Initial Stored Volume ....         0.000         0.000
  Final Stored Volume ......         0.013         0.004
  Continuity Error (%) .....         0.651
  
  
  *************************
  Highest Continuity Errors
  *************************
  Node Dam (1.09%)
  
  
  ***************************
  Time-Step Critical Elements
  ***************************
  None
  
  
  ********************************
  Highest Flow Instability Indexes
  ********************************
  All links are stable.
  
  
  *************************
  Routing Time Step Summary
  *************************
  Minimum Time Step           :     0.90 sec
  Average Time Step           :     1.00 sec
  Maximum Time Step           :     1.00 sec
  Percent in Steady State     :     0.00
  Average Iterations per Step :     2.00
  Percent Not Converging      :     0.00
  
  
  ***************************
  Subcatchment Runoff Summary
  ***************************
  
  ------------------------------------------------------------------------------------------------------------------------------
                            Total      Total      Total      Total     Imperv       Perv      Total       Total     Peak  Runoff
                           Precip      Runon       Evap      Infil     Runoff     Runoff     Runoff      Runoff   Runoff   Coeff
  Subcatchment                 in         in         in         in         in         in         in    10^6 gal      CFS
  ------------------------------------------------------------------------------------------------------------------------------
  DON_1                      1.12       0.00       0.00       0.56       0.53       0.00       0.53        0.06     0.12   0.474
  DON_3                      1.12       0.00       0.00       0.84       0.27       0.00       0.27        0.03     0.06   0.238
  DON_4                      1.12       0.00       0.00       0.56       0.53       0.00       0.53        0.06     0.12   0.474
  DON_5                      1.12       0.00       0.00       0.56       0.53       0.00       0.53        0.06     0.12   0.474
  DON_6                      1.12       0.00       0.00       0.56       0.53       0.00       0.53        0.06     0.12   0.474
  DON_7                      1.12       0.00       0.00       0.56       0.53       0.00       0.53        0.06     0.12   0.474
  DON_8                      1.12       0.00       0.00       0.56       0.53       0.00       0.53        0.06     0.12   0.474
  DON_9                      1.12       0.00       0.00       0.56       0.53       0.00       0.53        0.06     0.12   0.474
  DON_10                     1.12       0.00       0.00       0.56       0.53       0.00       0.53        0.06     0.12   0.474
  DON_11                     1.12       0.00       0.00       0.56       0.53       0.00       0.53        0.06     0.12   0.474
  DON_2                      1.12       0.00       0.00       0.56       0.53       0.00       0.53        0.06     0.12   0.474
  
  
  ******************
  Node Depth Summary
  ******************
  
  ---------------------------------------------------------------------------------
                                 Average  Maximum  Maximum  Time of Max    Reported
                                   Depth    Depth      HGL   Occurrence   Max Depth
  Node                 Type         Feet     Feet     Feet  days hr:min        Feet
  ---------------------------------------------------------------------------------
  J1                   JUNCTION     0.08     0.10    96.10     0  12:58        0.10
  J2                   JUNCTION     0.36     0.47    90.47     0  13:19        0.47
  J3                   JUNCTION     0.06     0.08    93.08     0  10:53        0.08
  J4                   JUNCTION     0.11     0.14    88.14     0  13:31        0.14
  Out1                 OUTFALL      0.00     0.00    85.00     0  00:00        0.00
  Dam                  STORAGE      3.04     4.00     4.00     0  06:07        4.00
  
  
  *******************
  Node Inflow Summary
  *******************
  
  -------------------------------------------------------------------------------------------------
                                  Maximum  Maximum                  Lateral       Total        Flow
                                  Lateral    Total  Time of Max      Inflow      Inflow     Balance
                                   Inflow   Inflow   Occurrence      Volume      Volume       Error
  Node                 Type           CFS      CFS  days hr:min    10^6 gal    10^6 gal     Percent
  -------------------------------------------------------------------------------------------------
  J1                   JUNCTION      0.12     0.12     0  13:31      0.0577      0.0577       0.134
  J2                   JUNCTION      1.07     1.19     0  13:30       0.519       0.577       0.174
  J3                   JUNCTION      0.06     0.06     0  10:55       0.029       0.029       0.142
  J4                   JUNCTION      0.00     1.25     0  13:19           0       0.605       0.067
  Out1                 OUTFALL       0.00     0.00     0  00:00           0           0       0.000 gal
  Dam                  STORAGE       0.00     1.25     0  13:31           0       0.604       1.102
  
  
  **********************
  Node Surcharge Summary
  **********************
  
  No nodes were surcharged.
  
  
  *********************
  Node Flooding Summary
  *********************
  
  Flooding refers to all water that overflows a node, whether it ponds or not.
  --------------------------------------------------------------------------
                                                             Total   Maximum
                                 Maximum   Time of Max       Flood    Ponded
                        Hours       Rate    Occurrence      Volume     Depth
  Node                 Flooded       CFS   days hr:min    10^6 gal      Feet
  --------------------------------------------------------------------------
  Dam                    17.88      1.25      0  13:31       0.598     0.000
  
  
  **********************
  Storage Volume Summary
  **********************
  
  --------------------------------------------------------------------------------------------------
                         Average     Avg  Evap Exfil       Maximum     Max    Time of Max    Maximum
                          Volume    Pcnt  Pcnt  Pcnt        Volume    Pcnt     Occurrence    Outflow
  Storage Unit          1000 ft3    Full  Loss  Loss      1000 ft3    Full    days hr:min        CFS
  --------------------------------------------------------------------------------------------------
  Dam                      0.012      75     0     0         0.016     100       0  06:07       0.00
  
  
  ***********************
  Outfall Loading Summary
  ***********************
  
  -----------------------------------------------------------
                         Flow       Avg       Max       Total
                         Freq      Flow      Flow      Volume
  Outfall Node           Pcnt       CFS       CFS    10^6 gal
  -----------------------------------------------------------
  Out1                   0.00      0.00      0.00       0.000
  -----------------------------------------------------------
  System                 0.00      0.00      0.00       0.000
  
  
  ********************
  Link Flow Summary
  ********************
  
  -----------------------------------------------------------------------------
                                 Maximum  Time of Max   Maximum    Max/    Max/
                                  |Flow|   Occurrence   |Veloc|    Full    Full
  Link                 Type          CFS  days hr:min    ft/sec    Flow   Depth
  -----------------------------------------------------------------------------
  C1                   CONDUIT      0.12     0  12:48      0.65    0.02    0.28
  C2                   CONDUIT      1.19     0  13:19      5.82    0.36    0.31
  C4                   CONDUIT      1.25     0  13:31      2.08    0.02    0.55
  C3                   CONDUIT      0.06     0  10:32      1.34    0.01    0.11
  2                    DUMMY        0.00     0  00:00
  
  
  ***************************
  Flow Classification Summary
  ***************************
  
  -------------------------------------------------------------------------------------
                      Adjusted    ---------- Fraction of Time in Flow Class ---------- 
                       /Actual         Up    Down  Sub   Sup   Up    Down  Norm  Inlet 
  Conduit               Length    Dry  Dry   Dry   Crit  Crit  Crit  Crit  Ltd   Ctrl  
  -------------------------------------------------------------------------------------
  C1                      1.00   0.21  0.00  0.00  0.79  0.00  0.00  0.00  0.79  0.00
  C2                      1.00   0.21  0.00  0.00  0.00  0.79  0.00  0.00  0.00  0.00
  C4                      1.00   0.21  0.00  0.00  0.78  0.01  0.00  0.00  0.79  0.00
  C3                      1.00   0.21  0.00  0.00  0.78  0.01  0.00  0.00  0.78  0.00
  
  
  *************************
  Conduit Surcharge Summary
  *************************
  
  ----------------------------------------------------------------------------
                                                           Hours        Hours 
                         --------- Hours Full --------   Above Full   Capacity
  Conduit                Both Ends  Upstream  Dnstream   Normal Flow   Limited
  ----------------------------------------------------------------------------
  C4                          0.01      0.01     18.27      0.01         0.01
  
  
  ********************
  Subcatchment Results
  ********************
  
  <<< Subcatchment DON_1 >>>
  ---------------------------------------------------
  Date        Time        Precip.    Losses    Runoff
                            in/hr     in/hr       CFS
  ---------------------------------------------------
   03/18/2020 20:15:00      0.000     0.000    0.0000
   03/18/2020 20:30:00      0.000     0.000    0.0000
   03/18/2020 20:45:00      0.000     0.000    0.0000
   03/18/2020 21:00:00      0.000     0.000    0.0000
   03/18/2020 21:15:00      0.000     0.000    0.0000
   03/18/2020 21:30:00      0.000     0.000    0.0000
   03/18/2020 21:45:00      0.000     0.000    0.0000
   03/18/2020 22:00:00      0.000     0.000    0.0000
   03/18/2020 22:15:00      0.000     0.000    0.0000
   03/18/2020 22:30:00      0.000     0.000    0.0000
   03/18/2020 22:45:00      0.000     0.000    0.0000
   03/18/2020 23:00:00      0.000     0.000    0.0000
   03/18/2020 23:15:00      0.000     0.000    0.0000
   03/18/2020 23:30:00      0.000     0.000    0.0000
   03/18/2020 23:45:00      0.000     0.000    0.0000
   03/19/2020 00:00:00      0.000     0.000    0.0000
   03/19/2020 00:15:00      0.000     0.000    0.0000
   03/19/2020 00:30:00      0.000     0.000    0.0000
   03/19/2020 00:45:00      0.000     0.000    0.0000
   03/19/2020 01:00:00      0.059     0.030    0.0000
   03/19/2020 01:15:00      0.059     0.030    0.0112
   03/19/2020 01:30:00      0.059     0.030    0.0221
   03/19/2020 01:45:00      0.059     0.030    0.0270
   03/19/2020 02:00:00      0.059     0.030    0.0461
   03/19/2020 02:15:00      0.059     0.030    0.0854
   03/19/2020 02:30:00      0.059     0.030    0.1065
   03/19/2020 02:45:00      0.059     0.030    0.1147
   03/19/2020 03:00:00      0.059     0.030    0.1176
   03/19/2020 03:15:00      0.059     0.030    0.1186
   03/19/2020 03:30:00      0.059     0.030    0.1189
   03/19/2020 03:45:00      0.059     0.030    0.1190
   03/19/2020 04:00:00      0.059     0.030    0.1191
   03/19/2020 04:15:00      0.059     0.030    0.1191
   03/19/2020 04:30:00      0.059     0.030    0.1191
   03/19/2020 04:45:00      0.059     0.030    0.1191
   03/19/2020 05:00:00      0.059     0.030    0.1191
   03/19/2020 05:15:00      0.059     0.030    0.1191
   03/19/2020 05:30:00      0.059     0.030    0.1191
   03/19/2020 05:45:00      0.059     0.030    0.1191
   03/19/2020 06:00:00      0.059     0.030    0.1191
   03/19/2020 06:15:00      0.059     0.030    0.1191
   03/19/2020 06:30:00      0.059     0.030    0.1191
   03/19/2020 06:45:00      0.059     0.030    0.1191
   03/19/2020 07:00:00      0.059     0.030    0.1191
   03/19/2020 07:15:00      0.059     0.030    0.1191
   03/19/2020 07:30:00      0.059     0.030    0.1191
   03/19/2020 07:45:00      0.059     0.030    0.1191
   03/19/2020 08:00:00      0.059     0.030    0.1191
   03/19/2020 08:15:00      0.059     0.030    0.1191
   03/19/2020 08:30:00      0.059     0.030    0.1191
   03/19/2020 08:45:00      0.059     0.030    0.1191
   03/19/2020 09:00:00      0.059     0.030    0.1191
   03/19/2020 09:15:00      0.059     0.030    0.1191
   03/19/2020 09:30:00      0.059     0.030    0.1191
   03/19/2020 09:45:00      0.059     0.030    0.1191
   03/19/2020 10:00:00      0.059     0.030    0.1191
   03/19/2020 10:15:00      0.059     0.030    0.1191
   03/19/2020 10:30:00      0.059     0.030    0.1191
   03/19/2020 10:45:00      0.059     0.030    0.1191
   03/19/2020 11:00:00      0.059     0.030    0.1191
   03/19/2020 11:15:00      0.059     0.030    0.1191
   03/19/2020 11:30:00      0.059     0.030    0.1191
   03/19/2020 11:45:00      0.059     0.030    0.1191
   03/19/2020 12:00:00      0.059     0.030    0.1191
   03/19/2020 12:15:00      0.059     0.030    0.1191
   03/19/2020 12:30:00      0.059     0.030    0.1191
   03/19/2020 12:45:00      0.059     0.030    0.1191
   03/19/2020 13:00:00      0.059     0.030    0.1191
   03/19/2020 13:15:00      0.059     0.030    0.1191
   03/19/2020 13:30:00      0.059     0.030    0.1191
   03/19/2020 13:45:00      0.059     0.030    0.1191
   03/19/2020 14:00:00      0.059     0.030    0.1191
   03/19/2020 14:15:00      0.059     0.030    0.1191
   03/19/2020 14:30:00      0.059     0.030    0.1191
   03/19/2020 14:45:00      0.059     0.030    0.1191
   03/19/2020 15:00:00      0.059     0.030    0.1191
   03/19/2020 15:15:00      0.059     0.030    0.1191
   03/19/2020 15:30:00      0.059     0.030    0.1191
   03/19/2020 15:45:00      0.059     0.030    0.1191
   03/19/2020 16:00:00      0.059     0.030    0.1191
   03/19/2020 16:15:00      0.059     0.030    0.1191
   03/19/2020 16:30:00      0.059     0.030    0.1191
   03/19/2020 16:45:00      0.059     0.030    0.1191
   03/19/2020 17:00:00      0.059     0.030    0.1191
   03/19/2020 17:15:00      0.059     0.030    0.1191
   03/19/2020 17:30:00      0.059     0.030    0.1191
   03/19/2020 17:45:00      0.059     0.030    0.1191
   03/19/2020 18:00:00      0.059     0.030    0.1191
   03/19/2020 18:15:00      0.059     0.030    0.1191
   03/19/2020 18:30:00      0.059     0.030    0.1191
   03/19/2020 18:45:00      0.059     0.030    0.1191
   03/19/2020 19:00:00      0.059     0.030    0.1191
   03/19/2020 19:15:00      0.059     0.030    0.1191
   03/19/2020 19:30:00      0.059     0.030    0.1191
   03/19/2020 19:45:00      0.059     0.030    0.1191
   03/19/2020 20:00:00      0.059     0.030    0.1191
  
  
  <<< Subcatchment DON_3 >>>
  ---------------------------------------------------
  Date        Time        Precip.    Losses    Runoff
                            in/hr     in/hr       CFS
  ---------------------------------------------------
   03/18/2020 20:15:00      0.000     0.000    0.0000
   03/18/2020 20:30:00      0.000     0.000    0.0000
   03/18/2020 20:45:00      0.000     0.000    0.0000
   03/18/2020 21:00:00      0.000     0.000    0.0000
   03/18/2020 21:15:00      0.000     0.000    0.0000
   03/18/2020 21:30:00      0.000     0.000    0.0000
   03/18/2020 21:45:00      0.000     0.000    0.0000
   03/18/2020 22:00:00      0.000     0.000    0.0000
   03/18/2020 22:15:00      0.000     0.000    0.0000
   03/18/2020 22:30:00      0.000     0.000    0.0000
   03/18/2020 22:45:00      0.000     0.000    0.0000
   03/18/2020 23:00:00      0.000     0.000    0.0000
   03/18/2020 23:15:00      0.000     0.000    0.0000
   03/18/2020 23:30:00      0.000     0.000    0.0000
   03/18/2020 23:45:00      0.000     0.000    0.0000
   03/19/2020 00:00:00      0.000     0.000    0.0000
   03/19/2020 00:15:00      0.000     0.000    0.0000
   03/19/2020 00:30:00      0.000     0.000    0.0000
   03/19/2020 00:45:00      0.000     0.000    0.0000
   03/19/2020 01:00:00      0.059     0.044    0.0000
   03/19/2020 01:15:00      0.059     0.044    0.0088
   03/19/2020 01:30:00      0.059     0.044    0.0135
   03/19/2020 01:45:00      0.059     0.044    0.0146
   03/19/2020 02:00:00      0.059     0.044    0.0302
   03/19/2020 02:15:00      0.059     0.044    0.0521
   03/19/2020 02:30:00      0.059     0.044    0.0581
   03/19/2020 02:45:00      0.059     0.044    0.0593
   03/19/2020 03:00:00      0.059     0.044    0.0595
   03/19/2020 03:15:00      0.059     0.044    0.0595
   03/19/2020 03:30:00      0.059     0.044    0.0595
   03/19/2020 03:45:00      0.059     0.044    0.0595
   03/19/2020 04:00:00      0.059     0.044    0.0595
   03/19/2020 04:15:00      0.059     0.044    0.0595
   03/19/2020 04:30:00      0.059     0.044    0.0595
   03/19/2020 04:45:00      0.059     0.044    0.0595
   03/19/2020 05:00:00      0.059     0.044    0.0595
   03/19/2020 05:15:00      0.059     0.044    0.0595
   03/19/2020 05:30:00      0.059     0.044    0.0595
   03/19/2020 05:45:00      0.059     0.044    0.0595
   03/19/2020 06:00:00      0.059     0.044    0.0595
   03/19/2020 06:15:00      0.059     0.044    0.0595
   03/19/2020 06:30:00      0.059     0.044    0.0595
   03/19/2020 06:45:00      0.059     0.044    0.0595
   03/19/2020 07:00:00      0.059     0.044    0.0595
   03/19/2020 07:15:00      0.059     0.044    0.0595
   03/19/2020 07:30:00      0.059     0.044    0.0595
   03/19/2020 07:45:00      0.059     0.044    0.0595
   03/19/2020 08:00:00      0.059     0.044    0.0595
   03/19/2020 08:15:00      0.059     0.044    0.0595
   03/19/2020 08:30:00      0.059     0.044    0.0595
   03/19/2020 08:45:00      0.059     0.044    0.0595
   03/19/2020 09:00:00      0.059     0.044    0.0595
   03/19/2020 09:15:00      0.059     0.044    0.0595
   03/19/2020 09:30:00      0.059     0.044    0.0595
   03/19/2020 09:45:00      0.059     0.044    0.0595
   03/19/2020 10:00:00      0.059     0.044    0.0595
   03/19/2020 10:15:00      0.059     0.044    0.0595
   03/19/2020 10:30:00      0.059     0.044    0.0595
   03/19/2020 10:45:00      0.059     0.044    0.0595
   03/19/2020 11:00:00      0.059     0.044    0.0595
   03/19/2020 11:15:00      0.059     0.044    0.0595
   03/19/2020 11:30:00      0.059     0.044    0.0595
   03/19/2020 11:45:00      0.059     0.044    0.0595
   03/19/2020 12:00:00      0.059     0.044    0.0595
   03/19/2020 12:15:00      0.059     0.044    0.0595
   03/19/2020 12:30:00      0.059     0.044    0.0595
   03/19/2020 12:45:00      0.059     0.044    0.0595
   03/19/2020 13:00:00      0.059     0.044    0.0595
   03/19/2020 13:15:00      0.059     0.044    0.0595
   03/19/2020 13:30:00      0.059     0.044    0.0595
   03/19/2020 13:45:00      0.059     0.044    0.0595
   03/19/2020 14:00:00      0.059     0.044    0.0595
   03/19/2020 14:15:00      0.059     0.044    0.0595
   03/19/2020 14:30:00      0.059     0.044    0.0595
   03/19/2020 14:45:00      0.059     0.044    0.0595
   03/19/2020 15:00:00      0.059     0.044    0.0595
   03/19/2020 15:15:00      0.059     0.044    0.0595
   03/19/2020 15:30:00      0.059     0.044    0.0595
   03/19/2020 15:45:00      0.059     0.044    0.0595
   03/19/2020 16:00:00      0.059     0.044    0.0595
   03/19/2020 16:15:00      0.059     0.044    0.0595
   03/19/2020 16:30:00      0.059     0.044    0.0595
   03/19/2020 16:45:00      0.059     0.044    0.0595
   03/19/2020 17:00:00      0.059     0.044    0.0595
   03/19/2020 17:15:00      0.059     0.044    0.0595
   03/19/2020 17:30:00      0.059     0.044    0.0595
   03/19/2020 17:45:00      0.059     0.044    0.0595
   03/19/2020 18:00:00      0.059     0.044    0.0595
   03/19/2020 18:15:00      0.059     0.044    0.0595
   03/19/2020 18:30:00      0.059     0.044    0.0595
   03/19/2020 18:45:00      0.059     0.044    0.0595
   03/19/2020 19:00:00      0.059     0.044    0.0595
   03/19/2020 19:15:00      0.059     0.044    0.0595
   03/19/2020 19:30:00      0.059     0.044    0.0595
   03/19/2020 19:45:00      0.059     0.044    0.0595
   03/19/2020 20:00:00      0.059     0.044    0.0595
  
  
  <<< Subcatchment DON_4 >>>
  ---------------------------------------------------
  Date        Time        Precip.    Losses    Runoff
                            in/hr     in/hr       CFS
  ---------------------------------------------------
   03/18/2020 20:15:00      0.000     0.000    0.0000
   03/18/2020 20:30:00      0.000     0.000    0.0000
   03/18/2020 20:45:00      0.000     0.000    0.0000
   03/18/2020 21:00:00      0.000     0.000    0.0000
   03/18/2020 21:15:00      0.000     0.000    0.0000
   03/18/2020 21:30:00      0.000     0.000    0.0000
   03/18/2020 21:45:00      0.000     0.000    0.0000
   03/18/2020 22:00:00      0.000     0.000    0.0000
   03/18/2020 22:15:00      0.000     0.000    0.0000
   03/18/2020 22:30:00      0.000     0.000    0.0000
   03/18/2020 22:45:00      0.000     0.000    0.0000
   03/18/2020 23:00:00      0.000     0.000    0.0000
   03/18/2020 23:15:00      0.000     0.000    0.0000
   03/18/2020 23:30:00      0.000     0.000    0.0000
   03/18/2020 23:45:00      0.000     0.000    0.0000
   03/19/2020 00:00:00      0.000     0.000    0.0000
   03/19/2020 00:15:00      0.000     0.000    0.0000
   03/19/2020 00:30:00      0.000     0.000    0.0000
   03/19/2020 00:45:00      0.000     0.000    0.0000
   03/19/2020 01:00:00      0.059     0.030    0.0000
   03/19/2020 01:15:00      0.059     0.030    0.0112
   03/19/2020 01:30:00      0.059     0.030    0.0221
   03/19/2020 01:45:00      0.059     0.030    0.0270
   03/19/2020 02:00:00      0.059     0.030    0.0461
   03/19/2020 02:15:00      0.059     0.030    0.0854
   03/19/2020 02:30:00      0.059     0.030    0.1065
   03/19/2020 02:45:00      0.059     0.030    0.1147
   03/19/2020 03:00:00      0.059     0.030    0.1176
   03/19/2020 03:15:00      0.059     0.030    0.1186
   03/19/2020 03:30:00      0.059     0.030    0.1189
   03/19/2020 03:45:00      0.059     0.030    0.1190
   03/19/2020 04:00:00      0.059     0.030    0.1191
   03/19/2020 04:15:00      0.059     0.030    0.1191
   03/19/2020 04:30:00      0.059     0.030    0.1191
   03/19/2020 04:45:00      0.059     0.030    0.1191
   03/19/2020 05:00:00      0.059     0.030    0.1191
   03/19/2020 05:15:00      0.059     0.030    0.1191
   03/19/2020 05:30:00      0.059     0.030    0.1191
   03/19/2020 05:45:00      0.059     0.030    0.1191
   03/19/2020 06:00:00      0.059     0.030    0.1191
   03/19/2020 06:15:00      0.059     0.030    0.1191
   03/19/2020 06:30:00      0.059     0.030    0.1191
   03/19/2020 06:45:00      0.059     0.030    0.1191
   03/19/2020 07:00:00      0.059     0.030    0.1191
   03/19/2020 07:15:00      0.059     0.030    0.1191
   03/19/2020 07:30:00      0.059     0.030    0.1191
   03/19/2020 07:45:00      0.059     0.030    0.1191
   03/19/2020 08:00:00      0.059     0.030    0.1191
   03/19/2020 08:15:00      0.059     0.030    0.1191
   03/19/2020 08:30:00      0.059     0.030    0.1191
   03/19/2020 08:45:00      0.059     0.030    0.1191
   03/19/2020 09:00:00      0.059     0.030    0.1191
   03/19/2020 09:15:00      0.059     0.030    0.1191
   03/19/2020 09:30:00      0.059     0.030    0.1191
   03/19/2020 09:45:00      0.059     0.030    0.1191
   03/19/2020 10:00:00      0.059     0.030    0.1191
   03/19/2020 10:15:00      0.059     0.030    0.1191
   03/19/2020 10:30:00      0.059     0.030    0.1191
   03/19/2020 10:45:00      0.059     0.030    0.1191
   03/19/2020 11:00:00      0.059     0.030    0.1191
   03/19/2020 11:15:00      0.059     0.030    0.1191
   03/19/2020 11:30:00      0.059     0.030    0.1191
   03/19/2020 11:45:00      0.059     0.030    0.1191
   03/19/2020 12:00:00      0.059     0.030    0.1191
   03/19/2020 12:15:00      0.059     0.030    0.1191
   03/19/2020 12:30:00      0.059     0.030    0.1191
   03/19/2020 12:45:00      0.059     0.030    0.1191
   03/19/2020 13:00:00      0.059     0.030    0.1191
   03/19/2020 13:15:00      0.059     0.030    0.1191
   03/19/2020 13:30:00      0.059     0.030    0.1191
   03/19/2020 13:45:00      0.059     0.030    0.1191
   03/19/2020 14:00:00      0.059     0.030    0.1191
   03/19/2020 14:15:00      0.059     0.030    0.1191
   03/19/2020 14:30:00      0.059     0.030    0.1191
   03/19/2020 14:45:00      0.059     0.030    0.1191
   03/19/2020 15:00:00      0.059     0.030    0.1191
   03/19/2020 15:15:00      0.059     0.030    0.1191
   03/19/2020 15:30:00      0.059     0.030    0.1191
   03/19/2020 15:45:00      0.059     0.030    0.1191
   03/19/2020 16:00:00      0.059     0.030    0.1191
   03/19/2020 16:15:00      0.059     0.030    0.1191
   03/19/2020 16:30:00      0.059     0.030    0.1191
   03/19/2020 16:45:00      0.059     0.030    0.1191
   03/19/2020 17:00:00      0.059     0.030    0.1191
   03/19/2020 17:15:00      0.059     0.030    0.1191
   03/19/2020 17:30:00      0.059     0.030    0.1191
   03/19/2020 17:45:00      0.059     0.030    0.1191
   03/19/2020 18:00:00      0.059     0.030    0.1191
   03/19/2020 18:15:00      0.059     0.030    0.1191
   03/19/2020 18:30:00      0.059     0.030    0.1191
   03/19/2020 18:45:00      0.059     0.030    0.1191
   03/19/2020 19:00:00      0.059     0.030    0.1191
   03/19/2020 19:15:00      0.059     0.030    0.1191
   03/19/2020 19:30:00      0.059     0.030    0.1191
   03/19/2020 19:45:00      0.059     0.030    0.1191
   03/19/2020 20:00:00      0.059     0.030    0.1191
  
  
  <<< Subcatchment DON_5 >>>
  ---------------------------------------------------
  Date        Time        Precip.    Losses    Runoff
                            in/hr     in/hr       CFS
  ---------------------------------------------------
   03/18/2020 20:15:00      0.000     0.000    0.0000
   03/18/2020 20:30:00      0.000     0.000    0.0000
   03/18/2020 20:45:00      0.000     0.000    0.0000
   03/18/2020 21:00:00      0.000     0.000    0.0000
   03/18/2020 21:15:00      0.000     0.000    0.0000
   03/18/2020 21:30:00      0.000     0.000    0.0000
   03/18/2020 21:45:00      0.000     0.000    0.0000
   03/18/2020 22:00:00      0.000     0.000    0.0000
   03/18/2020 22:15:00      0.000     0.000    0.0000
   03/18/2020 22:30:00      0.000     0.000    0.0000
   03/18/2020 22:45:00      0.000     0.000    0.0000
   03/18/2020 23:00:00      0.000     0.000    0.0000
   03/18/2020 23:15:00      0.000     0.000    0.0000
   03/18/2020 23:30:00      0.000     0.000    0.0000
   03/18/2020 23:45:00      0.000     0.000    0.0000
   03/19/2020 00:00:00      0.000     0.000    0.0000
   03/19/2020 00:15:00      0.000     0.000    0.0000
   03/19/2020 00:30:00      0.000     0.000    0.0000
   03/19/2020 00:45:00      0.000     0.000    0.0000
   03/19/2020 01:00:00      0.059     0.030    0.0000
   03/19/2020 01:15:00      0.059     0.030    0.0112
   03/19/2020 01:30:00      0.059     0.030    0.0221
   03/19/2020 01:45:00      0.059     0.030    0.0270
   03/19/2020 02:00:00      0.059     0.030    0.0461
   03/19/2020 02:15:00      0.059     0.030    0.0854
   03/19/2020 02:30:00      0.059     0.030    0.1065
   03/19/2020 02:45:00      0.059     0.030    0.1147
   03/19/2020 03:00:00      0.059     0.030    0.1176
   03/19/2020 03:15:00      0.059     0.030    0.1186
   03/19/2020 03:30:00      0.059     0.030    0.1189
   03/19/2020 03:45:00      0.059     0.030    0.1190
   03/19/2020 04:00:00      0.059     0.030    0.1191
   03/19/2020 04:15:00      0.059     0.030    0.1191
   03/19/2020 04:30:00      0.059     0.030    0.1191
   03/19/2020 04:45:00      0.059     0.030    0.1191
   03/19/2020 05:00:00      0.059     0.030    0.1191
   03/19/2020 05:15:00      0.059     0.030    0.1191
   03/19/2020 05:30:00      0.059     0.030    0.1191
   03/19/2020 05:45:00      0.059     0.030    0.1191
   03/19/2020 06:00:00      0.059     0.030    0.1191
   03/19/2020 06:15:00      0.059     0.030    0.1191
   03/19/2020 06:30:00      0.059     0.030    0.1191
   03/19/2020 06:45:00      0.059     0.030    0.1191
   03/19/2020 07:00:00      0.059     0.030    0.1191
   03/19/2020 07:15:00      0.059     0.030    0.1191
   03/19/2020 07:30:00      0.059     0.030    0.1191
   03/19/2020 07:45:00      0.059     0.030    0.1191
   03/19/2020 08:00:00      0.059     0.030    0.1191
   03/19/2020 08:15:00      0.059     0.030    0.1191
   03/19/2020 08:30:00      0.059     0.030    0.1191
   03/19/2020 08:45:00      0.059     0.030    0.1191
   03/19/2020 09:00:00      0.059     0.030    0.1191
   03/19/2020 09:15:00      0.059     0.030    0.1191
   03/19/2020 09:30:00      0.059     0.030    0.1191
   03/19/2020 09:45:00      0.059     0.030    0.1191
   03/19/2020 10:00:00      0.059     0.030    0.1191
   03/19/2020 10:15:00      0.059     0.030    0.1191
   03/19/2020 10:30:00      0.059     0.030    0.1191
   03/19/2020 10:45:00      0.059     0.030    0.1191
   03/19/2020 11:00:00      0.059     0.030    0.1191
   03/19/2020 11:15:00      0.059     0.030    0.1191
   03/19/2020 11:30:00      0.059     0.030    0.1191
   03/19/2020 11:45:00      0.059     0.030    0.1191
   03/19/2020 12:00:00      0.059     0.030    0.1191
   03/19/2020 12:15:00      0.059     0.030    0.1191
   03/19/2020 12:30:00      0.059     0.030    0.1191
   03/19/2020 12:45:00      0.059     0.030    0.1191
   03/19/2020 13:00:00      0.059     0.030    0.1191
   03/19/2020 13:15:00      0.059     0.030    0.1191
   03/19/2020 13:30:00      0.059     0.030    0.1191
   03/19/2020 13:45:00      0.059     0.030    0.1191
   03/19/2020 14:00:00      0.059     0.030    0.1191
   03/19/2020 14:15:00      0.059     0.030    0.1191
   03/19/2020 14:30:00      0.059     0.030    0.1191
   03/19/2020 14:45:00      0.059     0.030    0.1191
   03/19/2020 15:00:00      0.059     0.030    0.1191
   03/19/2020 15:15:00      0.059     0.030    0.1191
   03/19/2020 15:30:00      0.059     0.030    0.1191
   03/19/2020 15:45:00      0.059     0.030    0.1191
   03/19/2020 16:00:00      0.059     0.030    0.1191
   03/19/2020 16:15:00      0.059     0.030    0.1191
   03/19/2020 16:30:00      0.059     0.030    0.1191
   03/19/2020 16:45:00      0.059     0.030    0.1191
   03/19/2020 17:00:00      0.059     0.030    0.1191
   03/19/2020 17:15:00      0.059     0.030    0.1191
   03/19/2020 17:30:00      0.059     0.030    0.1191
   03/19/2020 17:45:00      0.059     0.030    0.1191
   03/19/2020 18:00:00      0.059     0.030    0.1191
   03/19/2020 18:15:00      0.059     0.030    0.1191
   03/19/2020 18:30:00      0.059     0.030    0.1191
   03/19/2020 18:45:00      0.059     0.030    0.1191
   03/19/2020 19:00:00      0.059     0.030    0.1191
   03/19/2020 19:15:00      0.059     0.030    0.1191
   03/19/2020 19:30:00      0.059     0.030    0.1191
   03/19/2020 19:45:00      0.059     0.030    0.1191
   03/19/2020 20:00:00      0.059     0.030    0.1191
  
  
  <<< Subcatchment DON_6 >>>
  ---------------------------------------------------
  Date        Time        Precip.    Losses    Runoff
                            in/hr     in/hr       CFS
  ---------------------------------------------------
   03/18/2020 20:15:00      0.000     0.000    0.0000
   03/18/2020 20:30:00      0.000     0.000    0.0000
   03/18/2020 20:45:00      0.000     0.000    0.0000
   03/18/2020 21:00:00      0.000     0.000    0.0000
   03/18/2020 21:15:00      0.000     0.000    0.0000
   03/18/2020 21:30:00      0.000     0.000    0.0000
   03/18/2020 21:45:00      0.000     0.000    0.0000
   03/18/2020 22:00:00      0.000     0.000    0.0000
   03/18/2020 22:15:00      0.000     0.000    0.0000
   03/18/2020 22:30:00      0.000     0.000    0.0000
   03/18/2020 22:45:00      0.000     0.000    0.0000
   03/18/2020 23:00:00      0.000     0.000    0.0000
   03/18/2020 23:15:00      0.000     0.000    0.0000
   03/18/2020 23:30:00      0.000     0.000    0.0000
   03/18/2020 23:45:00      0.000     0.000    0.0000
   03/19/2020 00:00:00      0.000     0.000    0.0000
   03/19/2020 00:15:00      0.000     0.000    0.0000
   03/19/2020 00:30:00      0.000     0.000    0.0000
   03/19/2020 00:45:00      0.000     0.000    0.0000
   03/19/2020 01:00:00      0.059     0.030    0.0000
   03/19/2020 01:15:00      0.059     0.030    0.0112
   03/19/2020 01:30:00      0.059     0.030    0.0221
   03/19/2020 01:45:00      0.059     0.030    0.0270
   03/19/2020 02:00:00      0.059     0.030    0.0461
   03/19/2020 02:15:00      0.059     0.030    0.0854
   03/19/2020 02:30:00      0.059     0.030    0.1065
   03/19/2020 02:45:00      0.059     0.030    0.1147
   03/19/2020 03:00:00      0.059     0.030    0.1176
   03/19/2020 03:15:00      0.059     0.030    0.1186
   03/19/2020 03:30:00      0.059     0.030    0.1189
   03/19/2020 03:45:00      0.059     0.030    0.1190
   03/19/2020 04:00:00      0.059     0.030    0.1191
   03/19/2020 04:15:00      0.059     0.030    0.1191
   03/19/2020 04:30:00      0.059     0.030    0.1191
   03/19/2020 04:45:00      0.059     0.030    0.1191
   03/19/2020 05:00:00      0.059     0.030    0.1191
   03/19/2020 05:15:00      0.059     0.030    0.1191
   03/19/2020 05:30:00      0.059     0.030    0.1191
   03/19/2020 05:45:00      0.059     0.030    0.1191
   03/19/2020 06:00:00      0.059     0.030    0.1191
   03/19/2020 06:15:00      0.059     0.030    0.1191
   03/19/2020 06:30:00      0.059     0.030    0.1191
   03/19/2020 06:45:00      0.059     0.030    0.1191
   03/19/2020 07:00:00      0.059     0.030    0.1191
   03/19/2020 07:15:00      0.059     0.030    0.1191
   03/19/2020 07:30:00      0.059     0.030    0.1191
   03/19/2020 07:45:00      0.059     0.030    0.1191
   03/19/2020 08:00:00      0.059     0.030    0.1191
   03/19/2020 08:15:00      0.059     0.030    0.1191
   03/19/2020 08:30:00      0.059     0.030    0.1191
   03/19/2020 08:45:00      0.059     0.030    0.1191
   03/19/2020 09:00:00      0.059     0.030    0.1191
   03/19/2020 09:15:00      0.059     0.030    0.1191
   03/19/2020 09:30:00      0.059     0.030    0.1191
   03/19/2020 09:45:00      0.059     0.030    0.1191
   03/19/2020 10:00:00      0.059     0.030    0.1191
   03/19/2020 10:15:00      0.059     0.030    0.1191
   03/19/2020 10:30:00      0.059     0.030    0.1191
   03/19/2020 10:45:00      0.059     0.030    0.1191
   03/19/2020 11:00:00      0.059     0.030    0.1191
   03/19/2020 11:15:00      0.059     0.030    0.1191
   03/19/2020 11:30:00      0.059     0.030    0.1191
   03/19/2020 11:45:00      0.059     0.030    0.1191
   03/19/2020 12:00:00      0.059     0.030    0.1191
   03/19/2020 12:15:00      0.059     0.030    0.1191
   03/19/2020 12:30:00      0.059     0.030    0.1191
   03/19/2020 12:45:00      0.059     0.030    0.1191
   03/19/2020 13:00:00      0.059     0.030    0.1191
   03/19/2020 13:15:00      0.059     0.030    0.1191
   03/19/2020 13:30:00      0.059     0.030    0.1191
   03/19/2020 13:45:00      0.059     0.030    0.1191
   03/19/2020 14:00:00      0.059     0.030    0.1191
   03/19/2020 14:15:00      0.059     0.030    0.1191
   03/19/2020 14:30:00      0.059     0.030    0.1191
   03/19/2020 14:45:00      0.059     0.030    0.1191
   03/19/2020 15:00:00      0.059     0.030    0.1191
   03/19/2020 15:15:00      0.059     0.030    0.1191
   03/19/2020 15:30:00      0.059     0.030    0.1191
   03/19/2020 15:45:00      0.059     0.030    0.1191
   03/19/2020 16:00:00      0.059     0.030    0.1191
   03/19/2020 16:15:00      0.059     0.030    0.1191
   03/19/2020 16:30:00      0.059     0.030    0.1191
   03/19/2020 16:45:00      0.059     0.030    0.1191
   03/19/2020 17:00:00      0.059     0.030    0.1191
   03/19/2020 17:15:00      0.059     0.030    0.1191
   03/19/2020 17:30:00      0.059     0.030    0.1191
   03/19/2020 17:45:00      0.059     0.030    0.1191
   03/19/2020 18:00:00      0.059     0.030    0.1191
   03/19/2020 18:15:00      0.059     0.030    0.1191
   03/19/2020 18:30:00      0.059     0.030    0.1191
   03/19/2020 18:45:00      0.059     0.030    0.1191
   03/19/2020 19:00:00      0.059     0.030    0.1191
   03/19/2020 19:15:00      0.059     0.030    0.1191
   03/19/2020 19:30:00      0.059     0.030    0.1191
   03/19/2020 19:45:00      0.059     0.030    0.1191
   03/19/2020 20:00:00      0.059     0.030    0.1191
  
  
  <<< Subcatchment DON_7 >>>
  ---------------------------------------------------
  Date        Time        Precip.    Losses    Runoff
                            in/hr     in/hr       CFS
  ---------------------------------------------------
   03/18/2020 20:15:00      0.000     0.000    0.0000
   03/18/2020 20:30:00      0.000     0.000    0.0000
   03/18/2020 20:45:00      0.000     0.000    0.0000
   03/18/2020 21:00:00      0.000     0.000    0.0000
   03/18/2020 21:15:00      0.000     0.000    0.0000
   03/18/2020 21:30:00      0.000     0.000    0.0000
   03/18/2020 21:45:00      0.000     0.000    0.0000
   03/18/2020 22:00:00      0.000     0.000    0.0000
   03/18/2020 22:15:00      0.000     0.000    0.0000
   03/18/2020 22:30:00      0.000     0.000    0.0000
   03/18/2020 22:45:00      0.000     0.000    0.0000
   03/18/2020 23:00:00      0.000     0.000    0.0000
   03/18/2020 23:15:00      0.000     0.000    0.0000
   03/18/2020 23:30:00      0.000     0.000    0.0000
   03/18/2020 23:45:00      0.000     0.000    0.0000
   03/19/2020 00:00:00      0.000     0.000    0.0000
   03/19/2020 00:15:00      0.000     0.000    0.0000
   03/19/2020 00:30:00      0.000     0.000    0.0000
   03/19/2020 00:45:00      0.000     0.000    0.0000
   03/19/2020 01:00:00      0.059     0.030    0.0000
   03/19/2020 01:15:00      0.059     0.030    0.0112
   03/19/2020 01:30:00      0.059     0.030    0.0221
   03/19/2020 01:45:00      0.059     0.030    0.0270
   03/19/2020 02:00:00      0.059     0.030    0.0461
   03/19/2020 02:15:00      0.059     0.030    0.0854
   03/19/2020 02:30:00      0.059     0.030    0.1065
   03/19/2020 02:45:00      0.059     0.030    0.1147
   03/19/2020 03:00:00      0.059     0.030    0.1176
   03/19/2020 03:15:00      0.059     0.030    0.1186
   03/19/2020 03:30:00      0.059     0.030    0.1189
   03/19/2020 03:45:00      0.059     0.030    0.1190
   03/19/2020 04:00:00      0.059     0.030    0.1191
   03/19/2020 04:15:00      0.059     0.030    0.1191
   03/19/2020 04:30:00      0.059     0.030    0.1191
   03/19/2020 04:45:00      0.059     0.030    0.1191
   03/19/2020 05:00:00      0.059     0.030    0.1191
   03/19/2020 05:15:00      0.059     0.030    0.1191
   03/19/2020 05:30:00      0.059     0.030    0.1191
   03/19/2020 05:45:00      0.059     0.030    0.1191
   03/19/2020 06:00:00      0.059     0.030    0.1191
   03/19/2020 06:15:00      0.059     0.030    0.1191
   03/19/2020 06:30:00      0.059     0.030    0.1191
   03/19/2020 06:45:00      0.059     0.030    0.1191
   03/19/2020 07:00:00      0.059     0.030    0.1191
   03/19/2020 07:15:00      0.059     0.030    0.1191
   03/19/2020 07:30:00      0.059     0.030    0.1191
   03/19/2020 07:45:00      0.059     0.030    0.1191
   03/19/2020 08:00:00      0.059     0.030    0.1191
   03/19/2020 08:15:00      0.059     0.030    0.1191
   03/19/2020 08:30:00      0.059     0.030    0.1191
   03/19/2020 08:45:00      0.059     0.030    0.1191
   03/19/2020 09:00:00      0.059     0.030    0.1191
   03/19/2020 09:15:00      0.059     0.030    0.1191
   03/19/2020 09:30:00      0.059     0.030    0.1191
   03/19/2020 09:45:00      0.059     0.030    0.1191
   03/19/2020 10:00:00      0.059     0.030    0.1191
   03/19/2020 10:15:00      0.059     0.030    0.1191
   03/19/2020 10:30:00      0.059     0.030    0.1191
   03/19/2020 10:45:00      0.059     0.030    0.1191
   03/19/2020 11:00:00      0.059     0.030    0.1191
   03/19/2020 11:15:00      0.059     0.030    0.1191
   03/19/2020 11:30:00      0.059     0.030    0.1191
   03/19/2020 11:45:00      0.059     0.030    0.1191
   03/19/2020 12:00:00      0.059     0.030    0.1191
   03/19/2020 12:15:00      0.059     0.030    0.1191
   03/19/2020 12:30:00      0.059     0.030    0.1191
   03/19/2020 12:45:00      0.059     0.030    0.1191
   03/19/2020 13:00:00      0.059     0.030    0.1191
   03/19/2020 13:15:00      0.059     0.030    0.1191
   03/19/2020 13:30:00      0.059     0.030    0.1191
   03/19/2020 13:45:00      0.059     0.030    0.1191
   03/19/2020 14:00:00      0.059     0.030    0.1191
   03/19/2020 14:15:00      0.059     0.030    0.1191
   03/19/2020 14:30:00      0.059     0.030    0.1191
   03/19/2020 14:45:00      0.059     0.030    0.1191
   03/19/2020 15:00:00      0.059     0.030    0.1191
   03/19/2020 15:15:00      0.059     0.030    0.1191
   03/19/2020 15:30:00      0.059     0.030    0.1191
   03/19/2020 15:45:00      0.059     0.030    0.1191
   03/19/2020 16:00:00      0.059     0.030    0.1191
   03/19/2020 16:15:00      0.059     0.030    0.1191
   03/19/2020 16:30:00      0.059     0.030    0.1191
   03/19/2020 16:45:00      0.059     0.030    0.1191
   03/19/2020 17:00:00      0.059     0.030    0.1191
   03/19/2020 17:15:00      0.059     0.030    0.1191
   03/19/2020 17:30:00      0.059     0.030    0.1191
   03/19/2020 17:45:00      0.059     0.030    0.1191
   03/19/2020 18:00:00      0.059     0.030    0.1191
   03/19/2020 18:15:00      0.059     0.030    0.1191
   03/19/2020 18:30:00      0.059     0.030    0.1191
   03/19/2020 18:45:00      0.059     0.030    0.1191
   03/19/2020 19:00:00      0.059     0.030    0.1191
   03/19/2020 19:15:00      0.059     0.030    0.1191
   03/19/2020 19:30:00      0.059     0.030    0.1191
   03/19/2020 19:45:00      0.059     0.030    0.1191
   03/19/2020 20:00:00      0.059     0.030    0.1191
  
  
  <<< Subcatchment DON_8 >>>
  ---------------------------------------------------
  Date        Time        Precip.    Losses    Runoff
                            in/hr     in/hr       CFS
  ---------------------------------------------------
   03/18/2020 20:15:00      0.000     0.000    0.0000
   03/18/2020 20:30:00      0.000     0.000    0.0000
   03/18/2020 20:45:00      0.000     0.000    0.0000
   03/18/2020 21:00:00      0.000     0.000    0.0000
   03/18/2020 21:15:00      0.000     0.000    0.0000
   03/18/2020 21:30:00      0.000     0.000    0.0000
   03/18/2020 21:45:00      0.000     0.000    0.0000
   03/18/2020 22:00:00      0.000     0.000    0.0000
   03/18/2020 22:15:00      0.000     0.000    0.0000
   03/18/2020 22:30:00      0.000     0.000    0.0000
   03/18/2020 22:45:00      0.000     0.000    0.0000
   03/18/2020 23:00:00      0.000     0.000    0.0000
   03/18/2020 23:15:00      0.000     0.000    0.0000
   03/18/2020 23:30:00      0.000     0.000    0.0000
   03/18/2020 23:45:00      0.000     0.000    0.0000
   03/19/2020 00:00:00      0.000     0.000    0.0000
   03/19/2020 00:15:00      0.000     0.000    0.0000
   03/19/2020 00:30:00      0.000     0.000    0.0000
   03/19/2020 00:45:00      0.000     0.000    0.0000
   03/19/2020 01:00:00      0.059     0.030    0.0000
   03/19/2020 01:15:00      0.059     0.030    0.0112
   03/19/2020 01:30:00      0.059     0.030    0.0221
   03/19/2020 01:45:00      0.059     0.030    0.0270
   03/19/2020 02:00:00      0.059     0.030    0.0461
   03/19/2020 02:15:00      0.059     0.030    0.0854
   03/19/2020 02:30:00      0.059     0.030    0.1065
   03/19/2020 02:45:00      0.059     0.030    0.1147
   03/19/2020 03:00:00      0.059     0.030    0.1176
   03/19/2020 03:15:00      0.059     0.030    0.1186
   03/19/2020 03:30:00      0.059     0.030    0.1189
   03/19/2020 03:45:00      0.059     0.030    0.1190
   03/19/2020 04:00:00      0.059     0.030    0.1191
   03/19/2020 04:15:00      0.059     0.030    0.1191
   03/19/2020 04:30:00      0.059     0.030    0.1191
   03/19/2020 04:45:00      0.059     0.030    0.1191
   03/19/2020 05:00:00      0.059     0.030    0.1191
   03/19/2020 05:15:00      0.059     0.030    0.1191
   03/19/2020 05:30:00      0.059     0.030    0.1191
   03/19/2020 05:45:00      0.059     0.030    0.1191
   03/19/2020 06:00:00      0.059     0.030    0.1191
   03/19/2020 06:15:00      0.059     0.030    0.1191
   03/19/2020 06:30:00      0.059     0.030    0.1191
   03/19/2020 06:45:00      0.059     0.030    0.1191
   03/19/2020 07:00:00      0.059     0.030    0.1191
   03/19/2020 07:15:00      0.059     0.030    0.1191
   03/19/2020 07:30:00      0.059     0.030    0.1191
   03/19/2020 07:45:00      0.059     0.030    0.1191
   03/19/2020 08:00:00      0.059     0.030    0.1191
   03/19/2020 08:15:00      0.059     0.030    0.1191
   03/19/2020 08:30:00      0.059     0.030    0.1191
   03/19/2020 08:45:00      0.059     0.030    0.1191
   03/19/2020 09:00:00      0.059     0.030    0.1191
   03/19/2020 09:15:00      0.059     0.030    0.1191
   03/19/2020 09:30:00      0.059     0.030    0.1191
   03/19/2020 09:45:00      0.059     0.030    0.1191
   03/19/2020 10:00:00      0.059     0.030    0.1191
   03/19/2020 10:15:00      0.059     0.030    0.1191
   03/19/2020 10:30:00      0.059     0.030    0.1191
   03/19/2020 10:45:00      0.059     0.030    0.1191
   03/19/2020 11:00:00      0.059     0.030    0.1191
   03/19/2020 11:15:00      0.059     0.030    0.1191
   03/19/2020 11:30:00      0.059     0.030    0.1191
   03/19/2020 11:45:00      0.059     0.030    0.1191
   03/19/2020 12:00:00      0.059     0.030    0.1191
   03/19/2020 12:15:00      0.059     0.030    0.1191
   03/19/2020 12:30:00      0.059     0.030    0.1191
   03/19/2020 12:45:00      0.059     0.030    0.1191
   03/19/2020 13:00:00      0.059     0.030    0.1191
   03/19/2020 13:15:00      0.059     0.030    0.1191
   03/19/2020 13:30:00      0.059     0.030    0.1191
   03/19/2020 13:45:00      0.059     0.030    0.1191
   03/19/2020 14:00:00      0.059     0.030    0.1191
   03/19/2020 14:15:00      0.059     0.030    0.1191
   03/19/2020 14:30:00      0.059     0.030    0.1191
   03/19/2020 14:45:00      0.059     0.030    0.1191
   03/19/2020 15:00:00      0.059     0.030    0.1191
   03/19/2020 15:15:00      0.059     0.030    0.1191
   03/19/2020 15:30:00      0.059     0.030    0.1191
   03/19/2020 15:45:00      0.059     0.030    0.1191
   03/19/2020 16:00:00      0.059     0.030    0.1191
   03/19/2020 16:15:00      0.059     0.030    0.1191
   03/19/2020 16:30:00      0.059     0.030    0.1191
   03/19/2020 16:45:00      0.059     0.030    0.1191
   03/19/2020 17:00:00      0.059     0.030    0.1191
   03/19/2020 17:15:00      0.059     0.030    0.1191
   03/19/2020 17:30:00      0.059     0.030    0.1191
   03/19/2020 17:45:00      0.059     0.030    0.1191
   03/19/2020 18:00:00      0.059     0.030    0.1191
   03/19/2020 18:15:00      0.059     0.030    0.1191
   03/19/2020 18:30:00      0.059     0.030    0.1191
   03/19/2020 18:45:00      0.059     0.030    0.1191
   03/19/2020 19:00:00      0.059     0.030    0.1191
   03/19/2020 19:15:00      0.059     0.030    0.1191
   03/19/2020 19:30:00      0.059     0.030    0.1191
   03/19/2020 19:45:00      0.059     0.030    0.1191
   03/19/2020 20:00:00      0.059     0.030    0.1191
  
  
  <<< Subcatchment DON_9 >>>
  ---------------------------------------------------
  Date        Time        Precip.    Losses    Runoff
                            in/hr     in/hr       CFS
  ---------------------------------------------------
   03/18/2020 20:15:00      0.000     0.000    0.0000
   03/18/2020 20:30:00      0.000     0.000    0.0000
   03/18/2020 20:45:00      0.000     0.000    0.0000
   03/18/2020 21:00:00      0.000     0.000    0.0000
   03/18/2020 21:15:00      0.000     0.000    0.0000
   03/18/2020 21:30:00      0.000     0.000    0.0000
   03/18/2020 21:45:00      0.000     0.000    0.0000
   03/18/2020 22:00:00      0.000     0.000    0.0000
   03/18/2020 22:15:00      0.000     0.000    0.0000
   03/18/2020 22:30:00      0.000     0.000    0.0000
   03/18/2020 22:45:00      0.000     0.000    0.0000
   03/18/2020 23:00:00      0.000     0.000    0.0000
   03/18/2020 23:15:00      0.000     0.000    0.0000
   03/18/2020 23:30:00      0.000     0.000    0.0000
   03/18/2020 23:45:00      0.000     0.000    0.0000
   03/19/2020 00:00:00      0.000     0.000    0.0000
   03/19/2020 00:15:00      0.000     0.000    0.0000
   03/19/2020 00:30:00      0.000     0.000    0.0000
   03/19/2020 00:45:00      0.000     0.000    0.0000
   03/19/2020 01:00:00      0.059     0.030    0.0000
   03/19/2020 01:15:00      0.059     0.030    0.0112
   03/19/2020 01:30:00      0.059     0.030    0.0221
   03/19/2020 01:45:00      0.059     0.030    0.0270
   03/19/2020 02:00:00      0.059     0.030    0.0461
   03/19/2020 02:15:00      0.059     0.030    0.0854
   03/19/2020 02:30:00      0.059     0.030    0.1065
   03/19/2020 02:45:00      0.059     0.030    0.1147
   03/19/2020 03:00:00      0.059     0.030    0.1176
   03/19/2020 03:15:00      0.059     0.030    0.1186
   03/19/2020 03:30:00      0.059     0.030    0.1189
   03/19/2020 03:45:00      0.059     0.030    0.1190
   03/19/2020 04:00:00      0.059     0.030    0.1191
   03/19/2020 04:15:00      0.059     0.030    0.1191
   03/19/2020 04:30:00      0.059     0.030    0.1191
   03/19/2020 04:45:00      0.059     0.030    0.1191
   03/19/2020 05:00:00      0.059     0.030    0.1191
   03/19/2020 05:15:00      0.059     0.030    0.1191
   03/19/2020 05:30:00      0.059     0.030    0.1191
   03/19/2020 05:45:00      0.059     0.030    0.1191
   03/19/2020 06:00:00      0.059     0.030    0.1191
   03/19/2020 06:15:00      0.059     0.030    0.1191
   03/19/2020 06:30:00      0.059     0.030    0.1191
   03/19/2020 06:45:00      0.059     0.030    0.1191
   03/19/2020 07:00:00      0.059     0.030    0.1191
   03/19/2020 07:15:00      0.059     0.030    0.1191
   03/19/2020 07:30:00      0.059     0.030    0.1191
   03/19/2020 07:45:00      0.059     0.030    0.1191
   03/19/2020 08:00:00      0.059     0.030    0.1191
   03/19/2020 08:15:00      0.059     0.030    0.1191
   03/19/2020 08:30:00      0.059     0.030    0.1191
   03/19/2020 08:45:00      0.059     0.030    0.1191
   03/19/2020 09:00:00      0.059     0.030    0.1191
   03/19/2020 09:15:00      0.059     0.030    0.1191
   03/19/2020 09:30:00      0.059     0.030    0.1191
   03/19/2020 09:45:00      0.059     0.030    0.1191
   03/19/2020 10:00:00      0.059     0.030    0.1191
   03/19/2020 10:15:00      0.059     0.030    0.1191
   03/19/2020 10:30:00      0.059     0.030    0.1191
   03/19/2020 10:45:00      0.059     0.030    0.1191
   03/19/2020 11:00:00      0.059     0.030    0.1191
   03/19/2020 11:15:00      0.059     0.030    0.1191
   03/19/2020 11:30:00      0.059     0.030    0.1191
   03/19/2020 11:45:00      0.059     0.030    0.1191
   03/19/2020 12:00:00      0.059     0.030    0.1191
   03/19/2020 12:15:00      0.059     0.030    0.1191
   03/19/2020 12:30:00      0.059     0.030    0.1191
   03/19/2020 12:45:00      0.059     0.030    0.1191
   03/19/2020 13:00:00      0.059     0.030    0.1191
   03/19/2020 13:15:00      0.059     0.030    0.1191
   03/19/2020 13:30:00      0.059     0.030    0.1191
   03/19/2020 13:45:00      0.059     0.030    0.1191
   03/19/2020 14:00:00      0.059     0.030    0.1191
   03/19/2020 14:15:00      0.059     0.030    0.1191
   03/19/2020 14:30:00      0.059     0.030    0.1191
   03/19/2020 14:45:00      0.059     0.030    0.1191
   03/19/2020 15:00:00      0.059     0.030    0.1191
   03/19/2020 15:15:00      0.059     0.030    0.1191
   03/19/2020 15:30:00      0.059     0.030    0.1191
   03/19/2020 15:45:00      0.059     0.030    0.1191
   03/19/2020 16:00:00      0.059     0.030    0.1191
   03/19/2020 16:15:00      0.059     0.030    0.1191
   03/19/2020 16:30:00      0.059     0.030    0.1191
   03/19/2020 16:45:00      0.059     0.030    0.1191
   03/19/2020 17:00:00      0.059     0.030    0.1191
   03/19/2020 17:15:00      0.059     0.030    0.1191
   03/19/2020 17:30:00      0.059     0.030    0.1191
   03/19/2020 17:45:00      0.059     0.030    0.1191
   03/19/2020 18:00:00      0.059     0.030    0.1191
   03/19/2020 18:15:00      0.059     0.030    0.1191
   03/19/2020 18:30:00      0.059     0.030    0.1191
   03/19/2020 18:45:00      0.059     0.030    0.1191
   03/19/2020 19:00:00      0.059     0.030    0.1191
   03/19/2020 19:15:00      0.059     0.030    0.1191
   03/19/2020 19:30:00      0.059     0.030    0.1191
   03/19/2020 19:45:00      0.059     0.030    0.1191
   03/19/2020 20:00:00      0.059     0.030    0.1191
  
  
  <<< Subcatchment DON_10 >>>
  ---------------------------------------------------
  Date        Time        Precip.    Losses    Runoff
                            in/hr     in/hr       CFS
  ---------------------------------------------------
   03/18/2020 20:15:00      0.000     0.000    0.0000
   03/18/2020 20:30:00      0.000     0.000    0.0000
   03/18/2020 20:45:00      0.000     0.000    0.0000
   03/18/2020 21:00:00      0.000     0.000    0.0000
   03/18/2020 21:15:00      0.000     0.000    0.0000
   03/18/2020 21:30:00      0.000     0.000    0.0000
   03/18/2020 21:45:00      0.000     0.000    0.0000
   03/18/2020 22:00:00      0.000     0.000    0.0000
   03/18/2020 22:15:00      0.000     0.000    0.0000
   03/18/2020 22:30:00      0.000     0.000    0.0000
   03/18/2020 22:45:00      0.000     0.000    0.0000
   03/18/2020 23:00:00      0.000     0.000    0.0000
   03/18/2020 23:15:00      0.000     0.000    0.0000
   03/18/2020 23:30:00      0.000     0.000    0.0000
   03/18/2020 23:45:00      0.000     0.000    0.0000
   03/19/2020 00:00:00      0.000     0.000    0.0000
   03/19/2020 00:15:00      0.000     0.000    0.0000
   03/19/2020 00:30:00      0.000     0.000    0.0000
   03/19/2020 00:45:00      0.000     0.000    0.0000
   03/19/2020 01:00:00      0.059     0.030    0.0000
   03/19/2020 01:15:00      0.059     0.030    0.0112
   03/19/2020 01:30:00      0.059     0.030    0.0221
   03/19/2020 01:45:00      0.059     0.030    0.0270
   03/19/2020 02:00:00      0.059     0.030    0.0461
   03/19/2020 02:15:00      0.059     0.030    0.0854
   03/19/2020 02:30:00      0.059     0.030    0.1065
   03/19/2020 02:45:00      0.059     0.030    0.1147
   03/19/2020 03:00:00      0.059     0.030    0.1176
   03/19/2020 03:15:00      0.059     0.030    0.1186
   03/19/2020 03:30:00      0.059     0.030    0.1189
   03/19/2020 03:45:00      0.059     0.030    0.1190
   03/19/2020 04:00:00      0.059     0.030    0.1191
   03/19/2020 04:15:00      0.059     0.030    0.1191
   03/19/2020 04:30:00      0.059     0.030    0.1191
   03/19/2020 04:45:00      0.059     0.030    0.1191
   03/19/2020 05:00:00      0.059     0.030    0.1191
   03/19/2020 05:15:00      0.059     0.030    0.1191
   03/19/2020 05:30:00      0.059     0.030    0.1191
   03/19/2020 05:45:00      0.059     0.030    0.1191
   03/19/2020 06:00:00      0.059     0.030    0.1191
   03/19/2020 06:15:00      0.059     0.030    0.1191
   03/19/2020 06:30:00      0.059     0.030    0.1191
   03/19/2020 06:45:00      0.059     0.030    0.1191
   03/19/2020 07:00:00      0.059     0.030    0.1191
   03/19/2020 07:15:00      0.059     0.030    0.1191
   03/19/2020 07:30:00      0.059     0.030    0.1191
   03/19/2020 07:45:00      0.059     0.030    0.1191
   03/19/2020 08:00:00      0.059     0.030    0.1191
   03/19/2020 08:15:00      0.059     0.030    0.1191
   03/19/2020 08:30:00      0.059     0.030    0.1191
   03/19/2020 08:45:00      0.059     0.030    0.1191
   03/19/2020 09:00:00      0.059     0.030    0.1191
   03/19/2020 09:15:00      0.059     0.030    0.1191
   03/19/2020 09:30:00      0.059     0.030    0.1191
   03/19/2020 09:45:00      0.059     0.030    0.1191
   03/19/2020 10:00:00      0.059     0.030    0.1191
   03/19/2020 10:15:00      0.059     0.030    0.1191
   03/19/2020 10:30:00      0.059     0.030    0.1191
   03/19/2020 10:45:00      0.059     0.030    0.1191
   03/19/2020 11:00:00      0.059     0.030    0.1191
   03/19/2020 11:15:00      0.059     0.030    0.1191
   03/19/2020 11:30:00      0.059     0.030    0.1191
   03/19/2020 11:45:00      0.059     0.030    0.1191
   03/19/2020 12:00:00      0.059     0.030    0.1191
   03/19/2020 12:15:00      0.059     0.030    0.1191
   03/19/2020 12:30:00      0.059     0.030    0.1191
   03/19/2020 12:45:00      0.059     0.030    0.1191
   03/19/2020 13:00:00      0.059     0.030    0.1191
   03/19/2020 13:15:00      0.059     0.030    0.1191
   03/19/2020 13:30:00      0.059     0.030    0.1191
   03/19/2020 13:45:00      0.059     0.030    0.1191
   03/19/2020 14:00:00      0.059     0.030    0.1191
   03/19/2020 14:15:00      0.059     0.030    0.1191
   03/19/2020 14:30:00      0.059     0.030    0.1191
   03/19/2020 14:45:00      0.059     0.030    0.1191
   03/19/2020 15:00:00      0.059     0.030    0.1191
   03/19/2020 15:15:00      0.059     0.030    0.1191
   03/19/2020 15:30:00      0.059     0.030    0.1191
   03/19/2020 15:45:00      0.059     0.030    0.1191
   03/19/2020 16:00:00      0.059     0.030    0.1191
   03/19/2020 16:15:00      0.059     0.030    0.1191
   03/19/2020 16:30:00      0.059     0.030    0.1191
   03/19/2020 16:45:00      0.059     0.030    0.1191
   03/19/2020 17:00:00      0.059     0.030    0.1191
   03/19/2020 17:15:00      0.059     0.030    0.1191
   03/19/2020 17:30:00      0.059     0.030    0.1191
   03/19/2020 17:45:00      0.059     0.030    0.1191
   03/19/2020 18:00:00      0.059     0.030    0.1191
   03/19/2020 18:15:00      0.059     0.030    0.1191
   03/19/2020 18:30:00      0.059     0.030    0.1191
   03/19/2020 18:45:00      0.059     0.030    0.1191
   03/19/2020 19:00:00      0.059     0.030    0.1191
   03/19/2020 19:15:00      0.059     0.030    0.1191
   03/19/2020 19:30:00      0.059     0.030    0.1191
   03/19/2020 19:45:00      0.059     0.030    0.1191
   03/19/2020 20:00:00      0.059     0.030    0.1191
  
  
  <<< Subcatchment DON_11 >>>
  ---------------------------------------------------
  Date        Time        Precip.    Losses    Runoff
                            in/hr     in/hr       CFS
  ---------------------------------------------------
   03/18/2020 20:15:00      0.000     0.000    0.0000
   03/18/2020 20:30:00      0.000     0.000    0.0000
   03/18/2020 20:45:00      0.000     0.000    0.0000
   03/18/2020 21:00:00      0.000     0.000    0.0000
   03/18/2020 21:15:00      0.000     0.000    0.0000
   03/18/2020 21:30:00      0.000     0.000    0.0000
   03/18/2020 21:45:00      0.000     0.000    0.0000
   03/18/2020 22:00:00      0.000     0.000    0.0000
   03/18/2020 22:15:00      0.000     0.000    0.0000
   03/18/2020 22:30:00      0.000     0.000    0.0000
   03/18/2020 22:45:00      0.000     0.000    0.0000
   03/18/2020 23:00:00      0.000     0.000    0.0000
   03/18/2020 23:15:00      0.000     0.000    0.0000
   03/18/2020 23:30:00      0.000     0.000    0.0000
   03/18/2020 23:45:00      0.000     0.000    0.0000
   03/19/2020 00:00:00      0.000     0.000    0.0000
   03/19/2020 00:15:00      0.000     0.000    0.0000
   03/19/2020 00:30:00      0.000     0.000    0.0000
   03/19/2020 00:45:00      0.000     0.000    0.0000
   03/19/2020 01:00:00      0.059     0.030    0.0000
   03/19/2020 01:15:00      0.059     0.030    0.0112
   03/19/2020 01:30:00      0.059     0.030    0.0221
   03/19/2020 01:45:00      0.059     0.030    0.0270
   03/19/2020 02:00:00      0.059     0.030    0.0461
   03/19/2020 02:15:00      0.059     0.030    0.0854
   03/19/2020 02:30:00      0.059     0.030    0.1065
   03/19/2020 02:45:00      0.059     0.030    0.1147
   03/19/2020 03:00:00      0.059     0.030    0.1176
   03/19/2020 03:15:00      0.059     0.030    0.1186
   03/19/2020 03:30:00      0.059     0.030    0.1189
   03/19/2020 03:45:00      0.059     0.030    0.1190
   03/19/2020 04:00:00      0.059     0.030    0.1191
   03/19/2020 04:15:00      0.059     0.030    0.1191
   03/19/2020 04:30:00      0.059     0.030    0.1191
   03/19/2020 04:45:00      0.059     0.030    0.1191
   03/19/2020 05:00:00      0.059     0.030    0.1191
   03/19/2020 05:15:00      0.059     0.030    0.1191
   03/19/2020 05:30:00      0.059     0.030    0.1191
   03/19/2020 05:45:00      0.059     0.030    0.1191
   03/19/2020 06:00:00      0.059     0.030    0.1191
   03/19/2020 06:15:00      0.059     0.030    0.1191
   03/19/2020 06:30:00      0.059     0.030    0.1191
   03/19/2020 06:45:00      0.059     0.030    0.1191
   03/19/2020 07:00:00      0.059     0.030    0.1191
   03/19/2020 07:15:00      0.059     0.030    0.1191
   03/19/2020 07:30:00      0.059     0.030    0.1191
   03/19/2020 07:45:00      0.059     0.030    0.1191
   03/19/2020 08:00:00      0.059     0.030    0.1191
   03/19/2020 08:15:00      0.059     0.030    0.1191
   03/19/2020 08:30:00      0.059     0.030    0.1191
   03/19/2020 08:45:00      0.059     0.030    0.1191
   03/19/2020 09:00:00      0.059     0.030    0.1191
   03/19/2020 09:15:00      0.059     0.030    0.1191
   03/19/2020 09:30:00      0.059     0.030    0.1191
   03/19/2020 09:45:00      0.059     0.030    0.1191
   03/19/2020 10:00:00      0.059     0.030    0.1191
   03/19/2020 10:15:00      0.059     0.030    0.1191
   03/19/2020 10:30:00      0.059     0.030    0.1191
   03/19/2020 10:45:00      0.059     0.030    0.1191
   03/19/2020 11:00:00      0.059     0.030    0.1191
   03/19/2020 11:15:00      0.059     0.030    0.1191
   03/19/2020 11:30:00      0.059     0.030    0.1191
   03/19/2020 11:45:00      0.059     0.030    0.1191
   03/19/2020 12:00:00      0.059     0.030    0.1191
   03/19/2020 12:15:00      0.059     0.030    0.1191
   03/19/2020 12:30:00      0.059     0.030    0.1191
   03/19/2020 12:45:00      0.059     0.030    0.1191
   03/19/2020 13:00:00      0.059     0.030    0.1191
   03/19/2020 13:15:00      0.059     0.030    0.1191
   03/19/2020 13:30:00      0.059     0.030    0.1191
   03/19/2020 13:45:00      0.059     0.030    0.1191
   03/19/2020 14:00:00      0.059     0.030    0.1191
   03/19/2020 14:15:00      0.059     0.030    0.1191
   03/19/2020 14:30:00      0.059     0.030    0.1191
   03/19/2020 14:45:00      0.059     0.030    0.1191
   03/19/2020 15:00:00      0.059     0.030    0.1191
   03/19/2020 15:15:00      0.059     0.030    0.1191
   03/19/2020 15:30:00      0.059     0.030    0.1191
   03/19/2020 15:45:00      0.059     0.030    0.1191
   03/19/2020 16:00:00      0.059     0.030    0.1191
   03/19/2020 16:15:00      0.059     0.030    0.1191
   03/19/2020 16:30:00      0.059     0.030    0.1191
   03/19/2020 16:45:00      0.059     0.030    0.1191
   03/19/2020 17:00:00      0.059     0.030    0.1191
   03/19/2020 17:15:00      0.059     0.030    0.1191
   03/19/2020 17:30:00      0.059     0.030    0.1191
   03/19/2020 17:45:00      0.059     0.030    0.1191
   03/19/2020 18:00:00      0.059     0.030    0.1191
   03/19/2020 18:15:00      0.059     0.030    0.1191
   03/19/2020 18:30:00      0.059     0.030    0.1191
   03/19/2020 18:45:00      0.059     0.030    0.1191
   03/19/2020 19:00:00      0.059     0.030    0.1191
   03/19/2020 19:15:00      0.059     0.030    0.1191
   03/19/2020 19:30:00      0.059     0.030    0.1191
   03/19/2020 19:45:00      0.059     0.030    0.1191
   03/19/2020 20:00:00      0.059     0.030    0.1191
  
  
  <<< Subcatchment DON_2 >>>
  ---------------------------------------------------
  Date        Time        Precip.    Losses    Runoff
                            in/hr     in/hr       CFS
  ---------------------------------------------------
   03/18/2020 20:15:00      0.000     0.000    0.0000
   03/18/2020 20:30:00      0.000     0.000    0.0000
   03/18/2020 20:45:00      0.000     0.000    0.0000
   03/18/2020 21:00:00      0.000     0.000    0.0000
   03/18/2020 21:15:00      0.000     0.000    0.0000
   03/18/2020 21:30:00      0.000     0.000    0.0000
   03/18/2020 21:45:00      0.000     0.000    0.0000
   03/18/2020 22:00:00      0.000     0.000    0.0000
   03/18/2020 22:15:00      0.000     0.000    0.0000
   03/18/2020 22:30:00      0.000     0.000    0.0000
   03/18/2020 22:45:00      0.000     0.000    0.0000
   03/18/2020 23:00:00      0.000     0.000    0.0000
   03/18/2020 23:15:00      0.000     0.000    0.0000
   03/18/2020 23:30:00      0.000     0.000    0.0000
   03/18/2020 23:45:00      0.000     0.000    0.0000
   03/19/2020 00:00:00      0.000     0.000    0.0000
   03/19/2020 00:15:00      0.000     0.000    0.0000
   03/19/2020 00:30:00      0.000     0.000    0.0000
   03/19/2020 00:45:00      0.000     0.000    0.0000
   03/19/2020 01:00:00      0.059     0.030    0.0000
   03/19/2020 01:15:00      0.059     0.030    0.0112
   03/19/2020 01:30:00      0.059     0.030    0.0221
   03/19/2020 01:45:00      0.059     0.030    0.0270
   03/19/2020 02:00:00      0.059     0.030    0.0461
   03/19/2020 02:15:00      0.059     0.030    0.0854
   03/19/2020 02:30:00      0.059     0.030    0.1065
   03/19/2020 02:45:00      0.059     0.030    0.1147
   03/19/2020 03:00:00      0.059     0.030    0.1176
   03/19/2020 03:15:00      0.059     0.030    0.1186
   03/19/2020 03:30:00      0.059     0.030    0.1189
   03/19/2020 03:45:00      0.059     0.030    0.1190
   03/19/2020 04:00:00      0.059     0.030    0.1191
   03/19/2020 04:15:00      0.059     0.030    0.1191
   03/19/2020 04:30:00      0.059     0.030    0.1191
   03/19/2020 04:45:00      0.059     0.030    0.1191
   03/19/2020 05:00:00      0.059     0.030    0.1191
   03/19/2020 05:15:00      0.059     0.030    0.1191
   03/19/2020 05:30:00      0.059     0.030    0.1191
   03/19/2020 05:45:00      0.059     0.030    0.1191
   03/19/2020 06:00:00      0.059     0.030    0.1191
   03/19/2020 06:15:00      0.059     0.030    0.1191
   03/19/2020 06:30:00      0.059     0.030    0.1191
   03/19/2020 06:45:00      0.059     0.030    0.1191
   03/19/2020 07:00:00      0.059     0.030    0.1191
   03/19/2020 07:15:00      0.059     0.030    0.1191
   03/19/2020 07:30:00      0.059     0.030    0.1191
   03/19/2020 07:45:00      0.059     0.030    0.1191
   03/19/2020 08:00:00      0.059     0.030    0.1191
   03/19/2020 08:15:00      0.059     0.030    0.1191
   03/19/2020 08:30:00      0.059     0.030    0.1191
   03/19/2020 08:45:00      0.059     0.030    0.1191
   03/19/2020 09:00:00      0.059     0.030    0.1191
   03/19/2020 09:15:00      0.059     0.030    0.1191
   03/19/2020 09:30:00      0.059     0.030    0.1191
   03/19/2020 09:45:00      0.059     0.030    0.1191
   03/19/2020 10:00:00      0.059     0.030    0.1191
   03/19/2020 10:15:00      0.059     0.030    0.1191
   03/19/2020 10:30:00      0.059     0.030    0.1191
   03/19/2020 10:45:00      0.059     0.030    0.1191
   03/19/2020 11:00:00      0.059     0.030    0.1191
   03/19/2020 11:15:00      0.059     0.030    0.1191
   03/19/2020 11:30:00      0.059     0.030    0.1191
   03/19/2020 11:45:00      0.059     0.030    0.1191
   03/19/2020 12:00:00      0.059     0.030    0.1191
   03/19/2020 12:15:00      0.059     0.030    0.1191
   03/19/2020 12:30:00      0.059     0.030    0.1191
   03/19/2020 12:45:00      0.059     0.030    0.1191
   03/19/2020 13:00:00      0.059     0.030    0.1191
   03/19/2020 13:15:00      0.059     0.030    0.1191
   03/19/2020 13:30:00      0.059     0.030    0.1191
   03/19/2020 13:45:00      0.059     0.030    0.1191
   03/19/2020 14:00:00      0.059     0.030    0.1191
   03/19/2020 14:15:00      0.059     0.030    0.1191
   03/19/2020 14:30:00      0.059     0.030    0.1191
   03/19/2020 14:45:00      0.059     0.030    0.1191
   03/19/2020 15:00:00      0.059     0.030    0.1191
   03/19/2020 15:15:00      0.059     0.030    0.1191
   03/19/2020 15:30:00      0.059     0.030    0.1191
   03/19/2020 15:45:00      0.059     0.030    0.1191
   03/19/2020 16:00:00      0.059     0.030    0.1191
   03/19/2020 16:15:00      0.059     0.030    0.1191
   03/19/2020 16:30:00      0.059     0.030    0.1191
   03/19/2020 16:45:00      0.059     0.030    0.1191
   03/19/2020 17:00:00      0.059     0.030    0.1191
   03/19/2020 17:15:00      0.059     0.030    0.1191
   03/19/2020 17:30:00      0.059     0.030    0.1191
   03/19/2020 17:45:00      0.059     0.030    0.1191
   03/19/2020 18:00:00      0.059     0.030    0.1191
   03/19/2020 18:15:00      0.059     0.030    0.1191
   03/19/2020 18:30:00      0.059     0.030    0.1191
   03/19/2020 18:45:00      0.059     0.030    0.1191
   03/19/2020 19:00:00      0.059     0.030    0.1191
   03/19/2020 19:15:00      0.059     0.030    0.1191
   03/19/2020 19:30:00      0.059     0.030    0.1191
   03/19/2020 19:45:00      0.059     0.030    0.1191
   03/19/2020 20:00:00      0.059     0.030    0.1191
  
  
  ************
  Node Results
  ************
  
  <<< Node J1 >>>
  ----------------------------------------------------------------
                           Inflow  Flooding     Depth      Head
  Date        Time            CFS       CFS      feet      feet
  ----------------------------------------------------------------
   03/18/2020 20:15:00      0.000     0.000     0.000    96.000
   03/18/2020 20:30:00      0.000     0.000     0.000    96.000
   03/18/2020 20:45:00      0.000     0.000     0.000    96.000
   03/18/2020 21:00:00      0.000     0.000     0.000    96.000
   03/18/2020 21:15:00      0.000     0.000     0.000    96.000
   03/18/2020 21:30:00      0.000     0.000     0.000    96.000
   03/18/2020 21:45:00      0.000     0.000     0.000    96.000
   03/18/2020 22:00:00      0.000     0.000     0.000    96.000
   03/18/2020 22:15:00      0.000     0.000     0.000    96.000
   03/18/2020 22:30:00      0.000     0.000     0.000    96.000
   03/18/2020 22:45:00      0.000     0.000     0.000    96.000
   03/18/2020 23:00:00      0.000     0.000     0.000    96.000
   03/18/2020 23:15:00      0.000     0.000     0.000    96.000
   03/18/2020 23:30:00      0.000     0.000     0.000    96.000
   03/18/2020 23:45:00      0.000     0.000     0.000    96.000
   03/19/2020 00:00:00      0.000     0.000     0.000    96.000
   03/19/2020 00:15:00      0.000     0.000     0.000    96.000
   03/19/2020 00:30:00      0.000     0.000     0.000    96.000
[...]
   03/19/2020 18:00:00      1.191     5.820     0.307     0.261
   03/19/2020 18:15:00      1.191     5.820     0.307     0.261
   03/19/2020 18:30:00      1.191     5.820     0.307     0.261
   03/19/2020 18:45:00      1.191     5.820     0.307     0.261
   03/19/2020 19:00:00      1.191     5.820     0.307     0.261
   03/19/2020 19:15:00      1.191     5.820     0.307     0.261
   03/19/2020 19:30:00      1.191     5.820     0.307     0.261
   03/19/2020 19:45:00      1.191     5.820     0.307     0.261
   03/19/2020 20:00:00      1.191     5.820     0.307     0.261
  
  
  <<< Link C4 >>>
  ----------------------------------------------------------------
                             Flow  Velocity     Depth  Capacity/
  Date        Time            CFS    ft/sec      feet   Setting 
  ----------------------------------------------------------------
   03/18/2020 20:15:00      0.000     0.000     0.000     0.000
   03/18/2020 20:30:00      0.000     0.000     0.000     0.000
   03/18/2020 20:45:00      0.000     0.000     0.000     0.000
   03/18/2020 21:00:00      0.000     0.000     0.000     0.000
   03/18/2020 21:15:00      0.000     0.000     0.000     0.000
   03/18/2020 21:30:00      0.000     0.000     0.000     0.000
   03/18/2020 21:45:00      0.000     0.000     0.000     0.000
   03/18/2020 22:00:00      0.000     0.000     0.000     0.000
   03/18/2020 22:15:00      0.000     0.000     0.000     0.000
   03/18/2020 22:30:00      0.000     0.000     0.000     0.000
   03/18/2020 22:45:00      0.000     0.000     0.000     0.000
   03/18/2020 23:00:00      0.000     0.000     0.000     0.000
   03/18/2020 23:15:00      0.000     0.000     0.000     0.000
   03/18/2020 23:30:00      0.000     0.000     0.000     0.000
   03/18/2020 23:45:00      0.000     0.000     0.000     0.000
   03/19/2020 00:00:00      0.000     0.000     0.000     0.000
   03/19/2020 00:15:00      0.000     0.000     0.000     0.000
   03/19/2020 00:30:00      0.000     0.000     0.000     0.000
   03/19/2020 00:45:00      0.000     0.000     0.000     0.000
   03/19/2020 01:00:00      0.000     0.000     0.000     0.000
   03/19/2020 01:15:00      0.018     1.141     0.027     0.006
   03/19/2020 01:30:00      0.151     0.976     0.231     0.102
   03/19/2020 01:45:00      0.251     0.415     0.584     0.362
   03/19/2020 02:00:00      0.312     0.332     0.787     0.532
   03/19/2020 02:15:00      0.643     0.667     0.802     0.544
   03/19/2020 02:30:00      0.997     1.016     0.815     0.555
   03/19/2020 02:45:00      1.159     1.174     0.820     0.559
   03/19/2020 03:00:00      1.219     1.231     0.821     0.560
   03/19/2020 03:15:00      1.240     1.251     0.822     0.561
   03/19/2020 03:30:00      1.247     1.258     0.822     0.561
   03/19/2020 03:45:00      1.249     1.260     0.822     0.561
   03/19/2020 04:00:00      1.250     1.261     0.822     0.561
   03/19/2020 04:15:00      1.250     1.261     0.822     0.561
   03/19/2020 04:30:00      1.250     1.261     0.822     0.561
   03/19/2020 04:45:00      1.251     1.261     0.822     0.561
   03/19/2020 05:00:00      1.251     1.261     0.822     0.561
   03/19/2020 05:15:00      1.251     1.261     0.822     0.561
   03/19/2020 05:30:00      1.251     1.261     0.822     0.561
   03/19/2020 05:45:00      1.251     1.261     0.822     0.561
   03/19/2020 06:00:00      1.251     1.261     0.822     0.561
   03/19/2020 06:15:00      1.251     1.261     0.822     0.561
   03/19/2020 06:30:00      1.251     1.261     0.822     0.561
   03/19/2020 06:45:00      1.251     1.261     0.822     0.561
   03/19/2020 07:00:00      1.251     1.261     0.822     0.561
   03/19/2020 07:15:00      1.251     1.261     0.822     0.561
   03/19/2020 07:30:00      1.251     1.261     0.822     0.561
   03/19/2020 07:45:00      1.251     1.261     0.822     0.561
   03/19/2020 08:00:00      1.251     1.261     0.822     0.561
   03/19/2020 08:15:00      1.251     1.261     0.822     0.561
   03/19/2020 08:30:00      1.251     1.261     0.822     0.561
   03/19/2020 08:45:00      1.251     1.261     0.822     0.561
   03/19/2020 09:00:00      1.251     1.261     0.822     0.561
   03/19/2020 09:15:00      1.251     1.261     0.822     0.561
   03/19/2020 09:30:00      1.251     1.261     0.822     0.561
   03/19/2020 09:45:00      1.251     1.261     0.822     0.561
   03/19/2020 10:00:00      1.251     1.261     0.822     0.561
   03/19/2020 10:15:00      1.251     1.261     0.822     0.561
   03/19/2020 10:30:00      1.251     1.261     0.822     0.561
   03/19/2020 10:45:00      1.251     1.261     0.822     0.561
   03/19/2020 11:00:00      1.251     1.261     0.822     0.561
   03/19/2020 11:15:00      1.251     1.261     0.822     0.561
   03/19/2020 11:30:00      1.251     1.261     0.822     0.561
   03/19/2020 11:45:00      1.251     1.261     0.822     0.561
   03/19/2020 12:00:00      1.251     1.261     0.822     0.561
   03/19/2020 12:15:00      1.251     1.261     0.822     0.561
   03/19/2020 12:30:00      1.251     1.261     0.822     0.561
   03/19/2020 12:45:00      1.251     1.261     0.822     0.561
   03/19/2020 13:00:00      1.251     1.261     0.822     0.561
   03/19/2020 13:15:00      1.251     1.261     0.822     0.561
   03/19/2020 13:30:00      1.251     1.261     0.822     0.561
   03/19/2020 13:45:00      1.251     1.261     0.822     0.561
   03/19/2020 14:00:00      1.251     1.261     0.822     0.561
   03/19/2020 14:15:00      1.251     1.261     0.822     0.561
   03/19/2020 14:30:00      1.251     1.261     0.822     0.561
   03/19/2020 14:45:00      1.251     1.261     0.822     0.561
   03/19/2020 15:00:00      1.251     1.261     0.822     0.561
   03/19/2020 15:15:00      1.251     1.261     0.822     0.561
   03/19/2020 15:30:00      1.251     1.261     0.822     0.561
   03/19/2020 15:45:00      1.251     1.261     0.822     0.561
   03/19/2020 16:00:00      1.251     1.261     0.822     0.561
   03/19/2020 16:15:00      1.251     1.261     0.822     0.561
   03/19/2020 16:30:00      1.251     1.261     0.822     0.561
   03/19/2020 16:45:00      1.251     1.261     0.822     0.561
   03/19/2020 17:00:00      1.251     1.261     0.822     0.561
   03/19/2020 17:15:00      1.251     1.261     0.822     0.561
   03/19/2020 17:30:00      1.251     1.261     0.822     0.561
   03/19/2020 17:45:00      1.251     1.261     0.822     0.561
   03/19/2020 18:00:00      1.251     1.261     0.822     0.561
   03/19/2020 18:15:00      1.251     1.261     0.822     0.561
   03/19/2020 18:30:00      1.251     1.261     0.822     0.561
   03/19/2020 18:45:00      1.251     1.261     0.822     0.561
   03/19/2020 19:00:00      1.251     1.261     0.822     0.561
   03/19/2020 19:15:00      1.251     1.261     0.822     0.561
   03/19/2020 19:30:00      1.251     1.261     0.822     0.561
   03/19/2020 19:45:00      1.251     1.261     0.822     0.561
   03/19/2020 20:00:00      1.251     1.261     0.822     0.561
  
  
  <<< Link C3 >>>
  ----------------------------------------------------------------
                             Flow  Velocity     Depth  Capacity/
  Date        Time            CFS    ft/sec      feet   Setting 
  ----------------------------------------------------------------
   03/18/2020 20:15:00      0.000     0.000     0.000     0.000
   03/18/2020 20:30:00      0.000     0.000     0.000     0.000
   03/18/2020 20:45:00      0.000     0.000     0.000     0.000
   03/18/2020 21:00:00      0.000     0.000     0.000     0.000
   03/18/2020 21:15:00      0.000     0.000     0.000     0.000
   03/18/2020 21:30:00      0.000     0.000     0.000     0.000
   03/18/2020 21:45:00      0.000     0.000     0.000     0.000
   03/18/2020 22:00:00      0.000     0.000     0.000     0.000
   03/18/2020 22:15:00      0.000     0.000     0.000     0.000
   03/18/2020 22:30:00      0.000     0.000     0.000     0.000
   03/18/2020 22:45:00      0.000     0.000     0.000     0.000
   03/18/2020 23:00:00      0.000     0.000     0.000     0.000
   03/18/2020 23:15:00      0.000     0.000     0.000     0.000
   03/18/2020 23:30:00      0.000     0.000     0.000     0.000
   03/18/2020 23:45:00      0.000     0.000     0.000     0.000
   03/19/2020 00:00:00      0.000     0.000     0.000     0.000
   03/19/2020 00:15:00      0.000     0.000     0.000     0.000
   03/19/2020 00:30:00      0.000     0.000     0.000     0.000
   03/19/2020 00:45:00      0.000     0.000     0.000     0.000
   03/19/2020 01:00:00      0.000     0.000     0.000     0.000
   03/19/2020 01:15:00      0.003     0.573     0.015     0.004
   03/19/2020 01:30:00      0.011     0.911     0.043     0.015
   03/19/2020 01:45:00      0.014     0.874     0.053     0.020
   03/19/2020 02:00:00      0.017     0.927     0.058     0.024
   03/19/2020 02:15:00      0.041     1.283     0.084     0.040
   03/19/2020 02:30:00      0.055     1.329     0.101     0.053
   03/19/2020 02:45:00      0.059     1.297     0.107     0.058
   03/19/2020 03:00:00      0.059     1.278     0.109     0.059
   03/19/2020 03:15:00      0.060     1.271     0.110     0.060
   03/19/2020 03:30:00      0.060     1.268     0.110     0.060
   03/19/2020 03:45:00      0.060     1.267     0.110     0.060
   03/19/2020 04:00:00      0.060     1.266     0.110     0.060
   03/19/2020 04:15:00      0.060     1.266     0.110     0.060
   03/19/2020 04:30:00      0.060     1.266     0.110     0.060
   03/19/2020 04:45:00      0.060     1.266     0.110     0.060
   03/19/2020 05:00:00      0.060     1.266     0.110     0.060
   03/19/2020 05:15:00      0.060     1.266     0.110     0.060
   03/19/2020 05:30:00      0.060     1.266     0.110     0.060
   03/19/2020 05:45:00      0.060     1.266     0.110     0.060
   03/19/2020 06:00:00      0.060     1.266     0.110     0.060
   03/19/2020 06:15:00      0.060     1.266     0.110     0.060
   03/19/2020 06:30:00      0.060     1.266     0.110     0.060
   03/19/2020 06:45:00      0.060     1.266     0.110     0.060
   03/19/2020 07:00:00      0.060     1.266     0.110     0.060
   03/19/2020 07:15:00      0.060     1.266     0.110     0.060
   03/19/2020 07:30:00      0.060     1.266     0.110     0.060
   03/19/2020 07:45:00      0.060     1.266     0.110     0.060
   03/19/2020 08:00:00      0.060     1.266     0.110     0.060
   03/19/2020 08:15:00      0.060     1.266     0.110     0.060
   03/19/2020 08:30:00      0.060     1.266     0.110     0.060
   03/19/2020 08:45:00      0.060     1.266     0.110     0.060
   03/19/2020 09:00:00      0.060     1.266     0.110     0.060
   03/19/2020 09:15:00      0.060     1.266     0.110     0.060
   03/19/2020 09:30:00      0.060     1.266     0.110     0.060
   03/19/2020 09:45:00      0.060     1.266     0.110     0.060
   03/19/2020 10:00:00      0.060     1.266     0.110     0.060
   03/19/2020 10:15:00      0.060     1.266     0.110     0.060
   03/19/2020 10:30:00      0.060     1.266     0.110     0.060
   03/19/2020 10:45:00      0.060     1.266     0.110     0.060
   03/19/2020 11:00:00      0.060     1.266     0.110     0.060
   03/19/2020 11:15:00      0.060     1.266     0.110     0.060
   03/19/2020 11:30:00      0.060     1.266     0.110     0.060
   03/19/2020 11:45:00      0.060     1.266     0.110     0.060
   03/19/2020 12:00:00      0.060     1.266     0.110     0.060
   03/19/2020 12:15:00      0.060     1.266     0.110     0.060
   03/19/2020 12:30:00      0.060     1.266     0.110     0.060
   03/19/2020 12:45:00      0.060     1.266     0.110     0.060
   03/19/2020 13:00:00      0.060     1.266     0.110     0.060
   03/19/2020 13:15:00      0.060     1.266     0.110     0.060
   03/19/2020 13:30:00      0.060     1.266     0.110     0.060
   03/19/2020 13:45:00      0.060     1.266     0.110     0.060
   03/19/2020 14:00:00      0.060     1.266     0.110     0.060
   03/19/2020 14:15:00      0.060     1.266     0.110     0.060
   03/19/2020 14:30:00      0.060     1.266     0.110     0.060
   03/19/2020 14:45:00      0.060     1.266     0.110     0.060
   03/19/2020 15:00:00      0.060     1.266     0.110     0.060
   03/19/2020 15:15:00      0.060     1.266     0.110     0.060
   03/19/2020 15:30:00      0.060     1.266     0.110     0.060
   03/19/2020 15:45:00      0.060     1.266     0.110     0.060
   03/19/2020 16:00:00      0.060     1.266     0.110     0.060
   03/19/2020 16:15:00      0.060     1.266     0.110     0.060
   03/19/2020 16:30:00      0.060     1.266     0.110     0.060
   03/19/2020 16:45:00      0.060     1.266     0.110     0.060
   03/19/2020 17:00:00      0.060     1.266     0.110     0.060
   03/19/2020 17:15:00      0.060     1.266     0.110     0.060
   03/19/2020 17:30:00      0.060     1.266     0.110     0.060
   03/19/2020 17:45:00      0.060     1.266     0.110     0.060
   03/19/2020 18:00:00      0.060     1.266     0.110     0.060
   03/19/2020 18:15:00      0.060     1.266     0.110     0.060
   03/19/2020 18:30:00      0.060     1.266     0.110     0.060
   03/19/2020 18:45:00      0.060     1.266     0.110     0.060
   03/19/2020 19:00:00      0.060     1.266     0.110     0.060
   03/19/2020 19:15:00      0.060     1.266     0.110     0.060
   03/19/2020 19:30:00      0.060     1.266     0.110     0.060
   03/19/2020 19:45:00      0.060     1.266     0.110     0.060
   03/19/2020 20:00:00      0.060     1.266     0.110     0.060
  
  
  <<< Link 2 >>>
  ----------------------------------------------------------------
                             Flow  Velocity     Depth  Capacity/
  Date        Time            CFS    ft/sec      feet   Setting 
  ----------------------------------------------------------------
   03/18/2020 20:15:00      0.000     0.000     0.000     1.000
   03/18/2020 20:30:00      0.000     0.000     0.000     1.000
   03/18/2020 20:45:00      0.000     0.000     0.000     1.000
   03/18/2020 21:00:00      0.000     0.000     0.000     1.000
   03/18/2020 21:15:00      0.000     0.000     0.000     1.000
   03/18/2020 21:30:00      0.000     0.000     0.000     1.000
   03/18/2020 21:45:00      0.000     0.000     0.000     1.000
   03/18/2020 22:00:00      0.000     0.000     0.000     1.000
   03/18/2020 22:15:00      0.000     0.000     0.000     1.000
   03/18/2020 22:30:00      0.000     0.000     0.000     1.000
   03/18/2020 22:45:00      0.000     0.000     0.000     1.000
   03/18/2020 23:00:00      0.000     0.000     0.000     1.000
   03/18/2020 23:15:00      0.000     0.000     0.000     1.000
   03/18/2020 23:30:00      0.000     0.000     0.000     1.000
   03/18/2020 23:45:00      0.000     0.000     0.000     1.000
   03/19/2020 00:00:00      0.000     0.000     0.000     1.000
   03/19/2020 00:15:00      0.000     0.000     0.000     1.000
   03/19/2020 00:30:00      0.000     0.000     0.000     1.000
   03/19/2020 00:45:00      0.000     0.000     0.000     1.000
   03/19/2020 01:00:00      0.000     0.000     0.000     1.000
   03/19/2020 01:15:00      0.000     0.000     0.000     1.000
   03/19/2020 01:30:00      0.000     0.000     0.000     1.000
   03/19/2020 01:45:00      0.000     0.000     0.000     1.000
   03/19/2020 02:00:00      0.000     0.000     0.000     1.000
   03/19/2020 02:15:00      0.000     0.000     0.000     1.000
   03/19/2020 02:30:00      0.000     0.000     0.000     1.000
   03/19/2020 02:45:00      0.000     0.000     0.000     1.000
   03/19/2020 03:00:00      0.000     0.000     0.000     1.000
   03/19/2020 03:15:00      0.000     0.000     0.000     1.000
   03/19/2020 03:30:00      0.000     0.000     0.000     1.000
   03/19/2020 03:45:00      0.000     0.000     0.000     1.000
   03/19/2020 04:00:00      0.000     0.000     0.000     1.000
   03/19/2020 04:15:00      0.000     0.000     0.000     1.000
   03/19/2020 04:30:00      0.000     0.000     0.000     1.000
   03/19/2020 04:45:00      0.000     0.000     0.000     1.000
   03/19/2020 05:00:00      0.000     0.000     0.000     1.000
   03/19/2020 05:15:00      0.000     0.000     0.000     1.000
   03/19/2020 05:30:00      0.000     0.000     0.000     1.000
   03/19/2020 05:45:00      0.000     0.000     0.000     1.000
   03/19/2020 06:00:00      0.000     0.000     0.000     1.000
   03/19/2020 06:15:00      0.000     0.000     0.000     1.000
   03/19/2020 06:30:00      0.000     0.000     0.000     1.000
   03/19/2020 06:45:00      0.000     0.000     0.000     1.000
   03/19/2020 07:00:00      0.000     0.000     0.000     1.000
   03/19/2020 07:15:00      0.000     0.000     0.000     1.000
   03/19/2020 07:30:00      0.000     0.000     0.000     1.000
   03/19/2020 07:45:00      0.000     0.000     0.000     1.000
   03/19/2020 08:00:00      0.000     0.000     0.000     1.000
   03/19/2020 08:15:00      0.000     0.000     0.000     1.000
   03/19/2020 08:30:00      0.000     0.000     0.000     1.000
   03/19/2020 08:45:00      0.000     0.000     0.000     1.000
   03/19/2020 09:00:00      0.000     0.000     0.000     1.000
   03/19/2020 09:15:00      0.000     0.000     0.000     1.000
   03/19/2020 09:30:00      0.000     0.000     0.000     1.000
   03/19/2020 09:45:00      0.000     0.000     0.000     1.000
   03/19/2020 10:00:00      0.000     0.000     0.000     1.000
   03/19/2020 10:15:00      0.000     0.000     0.000     1.000
   03/19/2020 10:30:00      0.000     0.000     0.000     1.000
   03/19/2020 10:45:00      0.000     0.000     0.000     1.000
   03/19/2020 11:00:00      0.000     0.000     0.000     1.000
   03/19/2020 11:15:00      0.000     0.000     0.000     1.000
   03/19/2020 11:30:00      0.000     0.000     0.000     1.000
   03/19/2020 11:45:00      0.000     0.000     0.000     1.000
   03/19/2020 12:00:00      0.000     0.000     0.000     1.000
   03/19/2020 12:15:00      0.000     0.000     0.000     1.000
   03/19/2020 12:30:00      0.000     0.000     0.000     1.000
   03/19/2020 12:45:00      0.000     0.000     0.000     1.000
   03/19/2020 13:00:00      0.000     0.000     0.000     1.000
   03/19/2020 13:15:00      0.000     0.000     0.000     1.000
   03/19/2020 13:30:00      0.000     0.000     0.000     1.000
   03/19/2020 13:45:00      0.000     0.000     0.000     1.000
   03/19/2020 14:00:00      0.000     0.000     0.000     1.000
   03/19/2020 14:15:00      0.000     0.000     0.000     1.000
   03/19/2020 14:30:00      0.000     0.000     0.000     1.000
   03/19/2020 14:45:00      0.000     0.000     0.000     1.000
   03/19/2020 15:00:00      0.000     0.000     0.000     1.000
   03/19/2020 15:15:00      0.000     0.000     0.000     1.000
   03/19/2020 15:30:00      0.000     0.000     0.000     1.000
   03/19/2020 15:45:00      0.000     0.000     0.000     1.000
   03/19/2020 16:00:00      0.000     0.000     0.000     1.000
   03/19/2020 16:15:00      0.000     0.000     0.000     1.000
   03/19/2020 16:30:00      0.000     0.000     0.000     1.000
   03/19/2020 16:45:00      0.000     0.000     0.000     1.000
   03/19/2020 17:00:00      0.000     0.000     0.000     1.000
   03/19/2020 17:15:00      0.000     0.000     0.000     1.000
   03/19/2020 17:30:00      0.000     0.000     0.000     1.000
   03/19/2020 17:45:00      0.000     0.000     0.000     1.000
   03/19/2020 18:00:00      0.000     0.000     0.000     1.000
   03/19/2020 18:15:00      0.000     0.000     0.000     1.000
   03/19/2020 18:30:00      0.000     0.000     0.000     1.000
   03/19/2020 18:45:00      0.000     0.000     0.000     1.000
   03/19/2020 19:00:00      0.000     0.000     0.000     1.000
   03/19/2020 19:15:00      0.000     0.000     0.000     1.000
   03/19/2020 19:30:00      0.000     0.000     0.000     1.000
   03/19/2020 19:45:00      0.000     0.000     0.000     1.000
   03/19/2020 20:00:00      0.000     0.000     0.000     1.000
  

  Analysis begun on:  Fri May  8 11:27:34 2020
  Analysis ended on:  Fri May  8 11:27:34 2020
  Total elapsed time: < 1 sec