
  EPA STORM WATER MANAGEMENT MODEL - VERSION 5.1 (Build 5.1.013)
  --------------------------------------------------------------

  EPASWMM-FEWS Test 
  
 
  *************
  Element Count
  *************
  Number of rain gages ...... 11
  Number of subcatchments ... 11
  Number of nodes ........... 5
  Number of links ........... 4
  Number of pollutants ...... 0
  Number of land uses ....... 0
  
  
  ****************
  Raingage Summary
  ****************
                                                      Data       Recording
  Name                 Data Source                    Type       Interval 
  ------------------------------------------------------------------------
  DON_3                RAINFALL.DAT                  
  DON_1                RAINFALL.DAT                  
  DON_2                RAINFALL.DAT                  
  DON_4                RAINFALL.DAT                  
  DON_5                RAINFALL.DAT                  
  DON_6                RAINFALL.DAT                  
  DON_7                RAINFALL.DAT                  
  DON_8                RAINFALL.DAT                  
  DON_9                RAINFALL.DAT                  
  DON_10               RAINFALL.DAT                  
  DON_11               RAINFALL.DAT                  
  
  
  ********************
  Subcatchment Summary
  ********************
  Name                       Area     Width   %Imperv    %Slope Rain Gage            Outlet              
  -----------------------------------------------------------------------------------------------------------
  DON_1                      4.00    400.00     50.00    0.5000 DON_1                J1                  
  DON_3                      4.00    400.00     25.00    0.5000 DON_3                J3                  
  DON_4                      4.00    400.00     50.00    0.5000 DON_2                J2                  
  DON_5                      4.00    400.00     50.00    0.5000 DON_5                J2                  
  DON_6                      4.00    400.00     50.00    0.5000 DON_6                J2                  
  DON_7                      4.00    400.00     50.00    0.5000 DON_7                J2                  
  DON_8                      4.00    400.00     50.00    0.5000 DON_8                J2                  
  DON_9                      4.00    400.00     50.00    0.5000 DON_9                J2                  
  DON_10                     4.00    400.00     50.00    0.5000 DON_10               J2                  
  DON_11                     4.00    400.00     50.00    0.5000 DON_11               J2                  
  DON_2                      4.00    400.00     50.00    0.5000 DON_2                J2                  
  
  
  ************
  Node Summary
  ************
                                           Invert      Max.    Ponded    External
  Name                 Type                 Elev.     Depth      Area    Inflow  
  -------------------------------------------------------------------------------
  J1                   JUNCTION             96.00      4.00       0.0
  J2                   JUNCTION             90.00      4.00       0.0
  J3                   JUNCTION             93.00      4.00       0.0
  J4                   JUNCTION             88.00      4.00       0.0
  Out1                 OUTFALL              85.00      1.50       0.0
  
  
  ************
  Link Summary
  ************
  Name             From Node        To Node          Type            Length    %Slope Roughness
  ---------------------------------------------------------------------------------------------
  C1               J1               J2               CONDUIT          400.0    1.5002    0.0100
  C2               J2               J4               CONDUIT          400.0    0.5000    0.0100
  C4               J4               Out1             CONDUIT          400.0    0.7500    0.0100
  C3               J3               J4               CONDUIT          400.0    1.2501    0.0100
  
  
  *********************
  Cross Section Summary
  *********************
                                        Full     Full     Hyd.     Max.   No. of     Full
  Conduit          Shape               Depth     Area     Rad.    Width  Barrels     Flow
  ---------------------------------------------------------------------------------------
  C1               CIRCULAR             1.00     0.79     0.25     1.00        1     5.67
  C2               CIRCULAR             1.00     0.79     0.25     1.00        1     3.28
  C4               CIRCULAR             1.50     1.77     0.38     1.50        1    11.83
  C3               CIRCULAR             1.00     0.79     0.25     1.00        1     5.18
  
  
  
  *********************
  Rainfall File Summary
  *********************
  Station    First        Last         Recording   Periods    Periods    Periods
  ID         Date         Date         Frequency  w/Precip    Missing    Malfunc.
  -------------------------------------------------------------------------------

  

  Analysis begun on:  Thu Mar 26 16:34:48 2020
  Analysis ended on:  Thu Mar 26 16:34:48 2020
  Total elapsed time: < 1 sec