
  EPA STORM WATER MANAGEMENT MODEL - VERSION 5.1 (Build 5.1.012)
  --------------------------------------------------------------

  Don Hydrology Update 2017 
  
  WARNING 03: negative offset ignored for Link C422
  WARNING 03: negative offset ignored for Link CJ1.20
  WARNING 04: minimum elevation drop used for Conduit CJ11.115
  WARNING 04: minimum elevation drop used for Conduit CJ11.115_HC
  WARNING 04: minimum elevation drop used for Conduit CJ11.124
  WARNING 04: minimum elevation drop used for Conduit CJ11.129
  WARNING 04: minimum elevation drop used for Conduit CJ11.129_HC
  WARNING 04: minimum elevation drop used for Conduit CJ11.147
  WARNING 04: minimum elevation drop used for Conduit CJ11.147_HC
  WARNING 04: minimum elevation drop used for Conduit CJ15.083
  WARNING 04: minimum elevation drop used for Conduit CJ15.083_HC
  WARNING 04: minimum elevation drop used for Conduit CJ181.09
  WARNING 04: minimum elevation drop used for Conduit CJ181.09_HC
  WARNING 04: minimum elevation drop used for Conduit CJ25.10
  WARNING 04: minimum elevation drop used for Conduit CJ25.10_HC
  WARNING 04: minimum elevation drop used for Conduit CJ26.26
  WARNING 04: minimum elevation drop used for Conduit CJ26.26_HC
  WARNING 04: minimum elevation drop used for Conduit CJ26.44
  WARNING 04: minimum elevation drop used for Conduit CJ26.44_HC
  WARNING 03: negative offset ignored for Link CJ28.22
  WARNING 04: minimum elevation drop used for Conduit CJ34.21
  WARNING 04: minimum elevation drop used for Conduit CJ34.21_HC
  WARNING 04: minimum elevation drop used for Conduit CJ35.16_1
  WARNING 04: minimum elevation drop used for Conduit CJ35.16_2
  WARNING 04: minimum elevation drop used for Conduit CJ35.16_3
  WARNING 04: minimum elevation drop used for Conduit CJ35.16_HC
  WARNING 04: minimum elevation drop used for Conduit CJ35.25
  WARNING 04: minimum elevation drop used for Conduit CJ35.25_HC
  WARNING 04: minimum elevation drop used for Conduit CJ35.32_1
  WARNING 04: minimum elevation drop used for Conduit CJ35.32_2
  WARNING 04: minimum elevation drop used for Conduit CJ35.32_3
  WARNING 04: minimum elevation drop used for Conduit CJ35.32_HC
  WARNING 04: minimum elevation drop used for Conduit CJ41.1071
  WARNING 04: minimum elevation drop used for Conduit CJ41.1071_HC
  WARNING 04: minimum elevation drop used for Conduit CJ41.143_1
  WARNING 04: minimum elevation drop used for Conduit CJ41.143_2
  WARNING 04: minimum elevation drop used for Conduit CJ41.143_3
  WARNING 04: minimum elevation drop used for Conduit CJ41.143_HC
  WARNING 04: minimum elevation drop used for Conduit CJ42.207
  WARNING 04: minimum elevation drop used for Conduit CJ42.207_HC
  WARNING 04: minimum elevation drop used for Conduit CJ43.056
  WARNING 04: minimum elevation drop used for Conduit CJ43.056_HC
  WARNING 04: minimum elevation drop used for Conduit CJ43.064
  WARNING 04: minimum elevation drop used for Conduit CJ43.117
  WARNING 04: minimum elevation drop used for Conduit CJ43.117_HC
  WARNING 04: minimum elevation drop used for Conduit CJ44.12
  WARNING 04: minimum elevation drop used for Conduit CJ44.12_HC
  WARNING 04: minimum elevation drop used for Conduit CJ5.41
  WARNING 04: minimum elevation drop used for Conduit CJ5.41_HC
  WARNING 04: minimum elevation drop used for Conduit CJ9.12
  WARNING 02: maximum depth increased for Node J022
  WARNING 02: maximum depth increased for Node J085
  WARNING 02: maximum depth increased for Node J086
  WARNING 02: maximum depth increased for Node J088
  WARNING 02: maximum depth increased for Node J109
  WARNING 02: maximum depth increased for Node J113
  WARNING 02: maximum depth increased for Node J152
  WARNING 02: maximum depth increased for Node J316
  WARNING 02: maximum depth increased for Node J321
  WARNING 02: maximum depth increased for Node J762
  
  *************
  Element Count
  *************
  Number of rain gages ...... 896
  Number of subcatchments ... 896
  Number of nodes ........... 890
  Number of links ........... 1047
  Number of pollutants ...... 0
  Number of land uses ....... 0
  
  
  ****************
  Raingage Summary
  ****************
                                                      Data       Recording
  Name                 Data Source                    Type       Interval 
  ------------------------------------------------------------------------
  RG_S001              C:\Users\zzhang\Desktop\my HEC-RAS Model 1\My Don Valley Models\Calib_20130708\Calib_20130708_files\20130708.dat
  RG_S002              C:\Users\zzhang\Desktop\my HEC-RAS Model 1\My Don Valley Models\Calib_20130708\Calib_20130708_files\20130708.dat
  RG_S003              C:\Users\zzhang\Desktop\my HEC-RAS Model 1\My Don Valley Models\Calib_20130708\Calib_20130708_files\20130708.dat
  RG_S004              C:\Users\zzhang\Desktop\my HEC-RAS Model 1\My Don Valley Models\Calib_20130708\Calib_20130708_files\20130708.dat
  RG_S005              C:\Users\zzhang\Desktop\my HEC-RAS Model 1\My Don Valley Models\Calib_20130708\Calib_20130708_files\20130708.dat
  RG_S006              C:\Users\zzhang\Desktop\my HEC-RAS Model 1\My Don Valley Models\Calib_20130708\Calib_20130708_files\20130708.dat
  RG_S007              C:\Users\zzhang\Desktop\my HEC-RAS Model 1\My Don Valley Models\Calib_20130708\Calib_20130708_files\20130708.dat
  RG_S008              C:\Users\zzhang\Desktop\my HEC-RAS Model 1\My Don Valley Models\Calib_20130708\Calib_20130708_files\20130708.dat
  RG_S009              C:\Users\zzhang\Desktop\my HEC-RAS Model 1\My Don Valley Models\Calib_20130708\Calib_20130708_files\20130708.dat
  RG_S010              C:\Users\zzhang\Desktop\my HEC-RAS Model 1\My Don Valley Models\Calib_20130708\Calib_20130708_files\20130708.dat
  RG_S011              C:\Users\zzhang\Desktop\my HEC-RAS Model 1\My Don Valley Models\Calib_20130708\Calib_20130708_files\20130708.dat
  RG_S012              C:\Users\zzhang\Desktop\my HEC-RAS Model 1\My Don Valley Models\Calib_20130708\Calib_20130708_files\20130708.dat
  RG_S013              C:\Users\zzhang\Desktop\my HEC-RAS Model 1\My Don Valley Models\Calib_20130708\Calib_20130708_files\20130708.dat
  RG_S014              C:\Users\zzhang\Desktop\my HEC-RAS Model 1\My Don Valley Models\Calib_20130708\Calib_20130708_files\20130708.dat
  RG_S015              C:\Users\zzhang\Desktop\my HEC-RAS Model 1\My Don Valley Models\Calib_20130708\Calib_20130708_files\20130708.dat
  RG_S016              C:\Users\zzhang\Desktop\my HEC-RAS Model 1\My Don Valley Models\Calib_20130708\Calib_20130708_files\20130708.dat
  RG_S017              C:\Users\zzhang\Desktop\my HEC-RAS Model 1\My Don Valley Models\Calib_20130708\Calib_20130708_files\20130708.dat
  RG_S018              C:\Users\zzhang\Desktop\my HEC-RAS Model 1\My Don Valley Models\Calib_20130708\Calib_20130708_files\20130708.dat
  RG_S019              C:\Users\zzhang\Desktop\my HEC-RAS Model 1\My Don Valley Models\Calib_20130708\Calib_20130708_files\20130708.dat
  RG_S020              C:\Users\zzhang\Desktop\my HEC-RAS Model 1\My Don Valley Models\Calib_20130708\Calib_20130708_files\20130708.dat
  RG_S021              C:\Users\zzhang\Desktop\my HEC-RAS Model 1\My Don Valley Models\Calib_20130708\Calib_20130708_files\20130708.dat
  RG_S022              C:\Users\zzhang\Desktop\my HEC-RAS Model 1\My Don Valley Models\Calib_20130708\Calib_20130708_files\20130708.dat
  RG_S023              C:\Users\zzhang\Desktop\my HEC-RAS Model 1\My Don Valley Models\Calib_20130708\Calib_20130708_files\20130708.dat
  RG_S024              C:\Users\zzhang\Desktop\my HEC-RAS Model 1\My Don Valley Models\Calib_20130708\Calib_20130708_files\20130708.dat
  RG_S025              C:\Users\zzhang\Desktop\my HEC-RAS Model 1\My Don Valley Models\Calib_20130708\Calib_20130708_files\20130708.dat
  RG_S026              C:\Users\zzhang\Desktop\my HEC-RAS Model 1\My Don Valley Models\Calib_20130708\Calib_20130708_files\20130708.dat
  RG_S027              C:\Users\zzhang\Desktop\my HEC-RAS Model 1\My Don Valley Models\Calib_20130708\Calib_20130708_files\20130708.dat
  RG_S028              C:\Users\zzhang\Desktop\my HEC-RAS Model 1\My Don Valley Models\Calib_20130708\Calib_20130708_files\20130708.dat
  RG_S029              C:\Users\zzhang\Desktop\my HEC-RAS Model 1\My Don Valley Models\Calib_20130708\Calib_20130708_files\20130708.dat
  RG_S030              C:\Users\zzhang\Desktop\my HEC-RAS Model 1\My Don Valley Models\Calib_20130708\Calib_20130708_files\20130708.dat
  RG_S031              C:\Users\zzhang\Desktop\my HEC-RAS Model 1\My Don Valley Models\Calib_20130708\Calib_20130708_files\20130708.dat
  RG_S032              C:\Users\zzhang\Desktop\my HEC-RAS Model 1\My Don Valley Models\Calib_20130708\Calib_20130708_files\20130708.dat
  RG_S033              C:\Users\zzhang\Desktop\my HEC-RAS Model 1\My Don Valley Models\Calib_20130708\Calib_20130708_files\20130708.dat
  RG_S034              C:\Users\zzhang\Desktop\my HEC-RAS Model 1\My Don Valley Models\Calib_20130708\Calib_20130708_files\20130708.dat
  RG_S035              C:\Users\zzhang\Desktop\my HEC-RAS Model 1\My Don Valley Models\Calib_20130708\Calib_20130708_files\20130708.dat
  RG_S036              C:\Users\zzhang\Desktop\my HEC-RAS Model 1\My Don Valley Models\Calib_20130708\Calib_20130708_files\20130708.dat
  RG_S037              C:\Users\zzhang\Desktop\my HEC-RAS Model 1\My Don Valley Models\Calib_20130708\Calib_20130708_files\20130708.dat
  RG_S038              C:\Users\zzhang\Desktop\my HEC-RAS Model 1\My Don Valley Models\Calib_20130708\Calib_20130708_files\20130708.dat
  RG_S039              C:\Users\zzhang\Desktop\my HEC-RAS Model 1\My Don Valley Models\Calib_20130708\Calib_20130708_files\20130708.dat
  RG_S040              C:\Users\zzhang\Desktop\my HEC-RAS Model 1\My Don Valley Models\Calib_20130708\Calib_20130708_files\20130708.dat
  RG_S041              C:\Users\zzhang\Desktop\my HEC-RAS Model 1\My Don Valley Models\Calib_20130708\Calib_20130708_files\20130708.dat
  RG_S042              C:\Users\zzhang\Desktop\my HEC-RAS Model 1\My Don Valley Models\Calib_20130708\Calib_20130708_files\20130708.dat
  RG_S043              C:\Users\zzhang\Desktop\my HEC-RAS Model 1\My Don Valley Models\Calib_20130708\Calib_20130708_files\20130708.dat
  RG_S044              C:\Users\zzhang\Desktop\my HEC-RAS Model 1\My Don Valley Models\Calib_20130708\Calib_20130708_files\20130708.dat
  RG_S045              C:\Users\zzhang\Desktop\my HEC-RAS Model 1\My Don Valley Models\Calib_20130708\Calib_20130708_files\20130708.dat
  RG_S046              C:\Users\zzhang\Desktop\my HEC-RAS Model 1\My Don Valley Models\Calib_20130708\Calib_20130708_files\20130708.dat
  RG_S047              C:\Users\zzhang\Desktop\my HEC-RAS Model 1\My Don Valley Models\Calib_20130708\Calib_20130708_files\20130708.dat
  RG_S048              C:\Users\zzhang\Desktop\my HEC-RAS Model 1\My Don Valley Models\Calib_20130708\Calib_20130708_files\20130708.dat
  RG_S049              C:\Users\zzhang\Desktop\my HEC-RAS Model 1\My Don Valley Models\Calib_20130708\Calib_20130708_files\20130708.dat
  RG_S050              C:\Users\zzhang\Desktop\my HEC-RAS Model 1\My Don Valley Models\Calib_20130708\Calib_20130708_files\20130708.dat
  RG_S051              C:\Users\zzhang\Desktop\my HEC-RAS Model 1\My Don Valley Models\Calib_20130708\Calib_20130708_files\20130708.dat
  RG_S052              C:\Users\zzhang\Desktop\my HEC-RAS Model 1\My Don Valley Models\Calib_20130708\Calib_20130708_files\20130708.dat
  RG_S053              C:\Users\zzhang\Desktop\my HEC-RAS Model 1\My Don Valley Models\Calib_20130708\Calib_20130708_files\20130708.dat
  RG_S054              C:\Users\zzhang\Desktop\my HEC-RAS Model 1\My Don Valley Models\Calib_20130708\Calib_20130708_files\20130708.dat
  RG_S055              C:\Users\zzhang\Desktop\my HEC-RAS Model 1\My Don Valley Models\Calib_20130708\Calib_20130708_files\20130708.dat
  RG_S056              C:\Users\zzhang\Desktop\my HEC-RAS Model 1\My Don Valley Models\Calib_20130708\Calib_20130708_files\20130708.dat
  RG_S057              C:\Users\zzhang\Desktop\my HEC-RAS Model 1\My Don Valley Models\Calib_20130708\Calib_20130708_files\20130708.dat
  RG_S058              C:\Users\zzhang\Desktop\my HEC-RAS Model 1\My Don Valley Models\Calib_20130708\Calib_20130708_files\20130708.dat
  RG_S059              C:\Users\zzhang\Desktop\my HEC-RAS Model 1\My Don Valley Models\Calib_20130708\Calib_20130708_files\20130708.dat
  RG_S060              C:\Users\zzhang\Desktop\my HEC-RAS Model 1\My Don Valley Models\Calib_20130708\Calib_20130708_files\20130708.dat
  RG_S061              C:\Users\zzhang\Desktop\my HEC-RAS Model 1\My Don Valley Models\Calib_20130708\Calib_20130708_files\20130708.dat
  RG_S062              C:\Users\zzhang\Desktop\my HEC-RAS Model 1\My Don Valley Models\Calib_20130708\Calib_20130708_files\20130708.dat
  RG_S063              C:\Users\zzhang\Desktop\my HEC-RAS Model 1\My Don Valley Models\Calib_20130708\Calib_20130708_files\20130708.dat
  RG_S064              C:\Users\zzhang\Desktop\my HEC-RAS Model 1\My Don Valley Models\Calib_20130708\Calib_20130708_files\20130708.dat
  RG_S065              C:\Users\zzhang\Desktop\my HEC-RAS Model 1\My Don Valley Models\Calib_20130708\Calib_20130708_files\20130708.dat
  RG_S066              C:\Users\zzhang\Desktop\my HEC-RAS Model 1\My Don Valley Models\Calib_20130708\Calib_20130708_files\20130708.dat
  RG_S067              C:\Users\zzhang\Desktop\my HEC-RAS Model 1\My Don Valley Models\Calib_20130708\Calib_20130708_files\20130708.dat
  RG_S068              C:\Users\zzhang\Desktop\my HEC-RAS Model 1\My Don Valley Models\Calib_20130708\Calib_20130708_files\20130708.dat
  RG_S069              C:\Users\zzhang\Desktop\my HEC-RAS Model 1\My Don Valley Models\Calib_20130708\Calib_20130708_files\20130708.dat
  RG_S070              C:\Users\zzhang\Desktop\my HEC-RAS Model 1\My Don Valley Models\Calib_20130708\Calib_20130708_files\20130708.dat
  RG_S071              C:\Users\zzhang\Desktop\my HEC-RAS Model 1\My Don Valley Models\Calib_20130708\Calib_20130708_files\20130708.dat
  RG_S072              C:\Users\zzhang\Desktop\my HEC-RAS Model 1\My Don Valley Models\Calib_20130708\Calib_20130708_files\20130708.dat
  RG_S073              C:\Users\zzhang\Desktop\my HEC-RAS Model 1\My Don Valley Models\Calib_20130708\Calib_20130708_files\20130708.dat
  RG_S074              C:\Users\zzhang\Desktop\my HEC-RAS Model 1\My Don Valley Models\Calib_20130708\Calib_20130708_files\20130708.dat
  RG_S075              C:\Users\zzhang\Desktop\my HEC-RAS Model 1\My Don Valley Models\Calib_20130708\Calib_20130708_files\20130708.dat
  RG_S076              C:\Users\zzhang\Desktop\my HEC-RAS Model 1\My Don Valley Models\Calib_20130708\Calib_20130708_files\20130708.dat
  RG_S077              C:\Users\zzhang\Desktop\my HEC-RAS Model 1\My Don Valley Models\Calib_20130708\Calib_20130708_files\20130708.dat
  RG_S078              C:\Users\zzhang\Desktop\my HEC-RAS Model 1\My Don Valley Models\Calib_20130708\Calib_20130708_files\20130708.dat
  RG_S079              C:\Users\zzhang\Desktop\my HEC-RAS Model 1\My Don Valley Models\Calib_20130708\Calib_20130708_files\20130708.dat
  RG_S080              C:\Users\zzhang\Desktop\my HEC-RAS Model 1\My Don Valley Models\Calib_20130708\Calib_20130708_files\20130708.dat
  RG_S081              C:\Users\zzhang\Desktop\my HEC-RAS Model 1\My Don Valley Models\Calib_20130708\Calib_20130708_files\20130708.dat
  RG_S082              C:\Users\zzhang\Desktop\my HEC-RAS Model 1\My Don Valley Models\Calib_20130708\Calib_20130708_files\20130708.dat
  RG_S083              C:\Users\zzhang\Desktop\my HEC-RAS Model 1\My Don Valley Models\Calib_20130708\Calib_20130708_files\20130708.dat
  RG_S084              C:\Users\zzhang\Desktop\my HEC-RAS Model 1\My Don Valley Models\Calib_20130708\Calib_20130708_files\20130708.dat
  RG_S085              C:\Users\zzhang\Desktop\my HEC-RAS Model 1\My Don Valley Models\Calib_20130708\Calib_20130708_files\20130708.dat
  RG_S086              C:\Users\zzhang\Desktop\my HEC-RAS Model 1\My Don Valley Models\Calib_20130708\Calib_20130708_files\20130708.dat
  RG_S087              C:\Users\zzhang\Desktop\my HEC-RAS Model 1\My Don Valley Models\Calib_20130708\Calib_20130708_files\20130708.dat
  RG_S088              C:\Users\zzhang\Desktop\my HEC-RAS Model 1\My Don Valley Models\Calib_20130708\Calib_20130708_files\20130708.dat
  RG_S089              C:\Users\zzhang\Desktop\my HEC-RAS Model 1\My Don Valley Models\Calib_20130708\Calib_20130708_files\20130708.dat
  RG_S090              C:\Users\zzhang\Desktop\my HEC-RAS Model 1\My Don Valley Models\Calib_20130708\Calib_20130708_files\20130708.dat
  RG_S091              C:\Users\zzhang\Desktop\my HEC-RAS Model 1\My Don Valley Models\Calib_20130708\Calib_20130708_files\20130708.dat
  RG_S092              C:\Users\zzhang\Desktop\my HEC-RAS Model 1\My Don Valley Models\Calib_20130708\Calib_20130708_files\20130708.dat
  RG_S093              C:\Users\zzhang\Desktop\my HEC-RAS Model 1\My Don Valley Models\Calib_20130708\Calib_20130708_files\20130708.dat
  RG_S094              C:\Users\zzhang\Desktop\my HEC-RAS Model 1\My Don Valley Models\Calib_20130708\Calib_20130708_files\20130708.dat
  RG_S095              C:\Users\zzhang\Desktop\my HEC-RAS Model 1\My Don Valley Models\Calib_20130708\Calib_20130708_files\20130708.dat
  RG_S096              C:\Users\zzhang\Desktop\my HEC-RAS Model 1\My Don Valley Models\Calib_20130708\Calib_20130708_files\20130708.dat
  RG_S097              C:\Users\zzhang\Desktop\my HEC-RAS Model 1\My Don Valley Models\Calib_20130708\Calib_20130708_files\20130708.dat
  RG_S098              C:\Users\zzhang\Desktop\my HEC-RAS Model 1\My Don Valley Models\Calib_20130708\Calib_20130708_files\20130708.dat
  RG_S099              C:\Users\zzhang\Desktop\my HEC-RAS Model 1\My Don Valley Models\Calib_20130708\Calib_20130708_files\20130708.dat
  RG_S100              C:\Users\zzhang\Desktop\my HEC-RAS Model 1\My Don Valley Models\Calib_20130708\Calib_20130708_files\20130708.dat
  RG_S101              C:\Users\zzhang\Desktop\my HEC-RAS Model 1\My Don Valley Models\Calib_20130708\Calib_20130708_files\20130708.dat
  RG_S102              C:\Users\zzhang\Desktop\my HEC-RAS Model 1\My Don Valley Models\Calib_20130708\Calib_20130708_files\20130708.dat
  RG_S103              C:\Users\zzhang\Desktop\my HEC-RAS Model 1\My Don Valley Models\Calib_20130708\Calib_20130708_files\20130708.dat
  RG_S104              C:\Users\zzhang\Desktop\my HEC-RAS Model 1\My Don Valley Models\Calib_20130708\Calib_20130708_files\20130708.dat
  RG_S105              C:\Users\zzhang\Desktop\my HEC-RAS Model 1\My Don Valley Models\Calib_20130708\Calib_20130708_files\20130708.dat
  RG_S106              C:\Users\zzhang\Desktop\my HEC-RAS Model 1\My Don Valley Models\Calib_20130708\Calib_20130708_files\20130708.dat
  RG_S107              C:\Users\zzhang\Desktop\my HEC-RAS Model 1\My Don Valley Models\Calib_20130708\Calib_20130708_files\20130708.dat
  RG_S108              C:\Users\zzhang\Desktop\my HEC-RAS Model 1\My Don Valley Models\Calib_20130708\Calib_20130708_files\20130708.dat
  RG_S109              C:\Users\zzhang\Desktop\my HEC-RAS Model 1\My Don Valley Models\Calib_20130708\Calib_20130708_files\20130708.dat
  RG_S110              C:\Users\zzhang\Desktop\my HEC-RAS Model 1\My Don Valley Models\Calib_20130708\Calib_20130708_files\20130708.dat
  RG_S111              C:\Users\zzhang\Desktop\my HEC-RAS Model 1\My Don Valley Models\Calib_20130708\Calib_20130708_files\20130708.dat
  RG_S112              C:\Users\zzhang\Desktop\my HEC-RAS Model 1\My Don Valley Models\Calib_20130708\Calib_20130708_files\20130708.dat
  RG_S113              C:\Users\zzhang\Desktop\my HEC-RAS Model 1\My Don Valley Models\Calib_20130708\Calib_20130708_files\20130708.dat
  RG_S114              C:\Users\zzhang\Desktop\my HEC-RAS Model 1\My Don Valley Models\Calib_20130708\Calib_20130708_files\20130708.dat
  RG_S115              C:\Users\zzhang\Desktop\my HEC-RAS Model 1\My Don Valley Models\Calib_20130708\Calib_20130708_files\20130708.dat
  RG_S116              C:\Users\zzhang\Desktop\my HEC-RAS Model 1\My Don Valley Models\Calib_20130708\Calib_20130708_files\20130708.dat
  RG_S117              C:\Users\zzhang\Desktop\my HEC-RAS Model 1\My Don Valley Models\Calib_20130708\Calib_20130708_files\20130708.dat
  RG_S118              C:\Users\zzhang\Desktop\my HEC-RAS Model 1\My Don Valley Models\Calib_20130708\Calib_20130708_files\20130708.dat
  RG_S119              C:\Users\zzhang\Desktop\my HEC-RAS Model 1\My Don Valley Models\Calib_20130708\Calib_20130708_files\20130708.dat
  RG_S120              C:\Users\zzhang\Desktop\my HEC-RAS Model 1\My Don Valley Models\Calib_20130708\Calib_20130708_files\20130708.dat
  RG_S121              C:\Users\zzhang\Desktop\my HEC-RAS Model 1\My Don Valley Models\Calib_20130708\Calib_20130708_files\20130708.dat
  RG_S122              C:\Users\zzhang\Desktop\my HEC-RAS Model 1\My Don Valley Models\Calib_20130708\Calib_20130708_files\20130708.dat
  RG_S123              C:\Users\zzhang\Desktop\my HEC-RAS Model 1\My Don Valley Models\Calib_20130708\Calib_20130708_files\20130708.dat
  RG_S124              C:\Users\zzhang\Desktop\my HEC-RAS Model 1\My Don Valley Models\Calib_20130708\Calib_20130708_files\20130708.dat
  RG_S125              C:\Users\zzhang\Desktop\my HEC-RAS Model 1\My Don Valley Models\Calib_20130708\Calib_20130708_files\20130708.dat
  RG_S126              C:\Users\zzhang\Desktop\my HEC-RAS Model 1\My Don Valley Models\Calib_20130708\Calib_20130708_files\20130708.dat
  RG_S127              C:\Users\zzhang\Desktop\my HEC-RAS Model 1\My Don Valley Models\Calib_20130708\Calib_20130708_files\20130708.dat
  RG_S128              C:\Users\zzhang\Desktop\my HEC-RAS Model 1\My Don Valley Models\Calib_20130708\Calib_20130708_files\20130708.dat
  RG_S129              C:\Users\zzhang\Desktop\my HEC-RAS Model 1\My Don Valley Models\Calib_20130708\Calib_20130708_files\20130708.dat
  RG_S130              C:\Users\zzhang\Desktop\my HEC-RAS Model 1\My Don Valley Models\Calib_20130708\Calib_20130708_files\20130708.dat
  RG_S131              C:\Users\zzhang\Desktop\my HEC-RAS Model 1\My Don Valley Models\Calib_20130708\Calib_20130708_files\20130708.dat
  RG_S132              C:\Users\zzhang\Desktop\my HEC-RAS Model 1\My Don Valley Models\Calib_20130708\Calib_20130708_files\20130708.dat
  RG_S133              C:\Users\zzhang\Desktop\my HEC-RAS Model 1\My Don Valley Models\Calib_20130708\Calib_20130708_files\20130708.dat
  RG_S134              C:\Users\zzhang\Desktop\my HEC-RAS Model 1\My Don Valley Models\Calib_20130708\Calib_20130708_files\20130708.dat
  RG_S135              C:\Users\zzhang\Desktop\my HEC-RAS Model 1\My Don Valley Models\Calib_20130708\Calib_20130708_files\20130708.dat
  RG_S136              C:\Users\zzhang\Desktop\my HEC-RAS Model 1\My Don Valley Models\Calib_20130708\Calib_20130708_files\20130708.dat
  RG_S137              C:\Users\zzhang\Desktop\my HEC-RAS Model 1\My Don Valley Models\Calib_20130708\Calib_20130708_files\20130708.dat
  RG_S138              C:\Users\zzhang\Desktop\my HEC-RAS Model 1\My Don Valley Models\Calib_20130708\Calib_20130708_files\20130708.dat
  RG_S139              C:\Users\zzhang\Desktop\my HEC-RAS Model 1\My Don Valley Models\Calib_20130708\Calib_20130708_files\20130708.dat
  RG_S140              C:\Users\zzhang\Desktop\my HEC-RAS Model 1\My Don Valley Models\Calib_20130708\Calib_20130708_files\20130708.dat
  RG_S141              C:\Users\zzhang\Desktop\my HEC-RAS Model 1\My Don Valley Models\Calib_20130708\Calib_20130708_files\20130708.dat
  RG_S142              C:\Users\zzhang\Desktop\my HEC-RAS Model 1\My Don Valley Models\Calib_20130708\Calib_20130708_files\20130708.dat
  RG_S143              C:\Users\zzhang\Desktop\my HEC-RAS Model 1\My Don Valley Models\Calib_20130708\Calib_20130708_files\20130708.dat
  RG_S144              C:\Users\zzhang\Desktop\my HEC-RAS Model 1\My Don Valley Models\Calib_20130708\Calib_20130708_files\20130708.dat
  RG_S145              C:\Users\zzhang\Desktop\my HEC-RAS Model 1\My Don Valley Models\Calib_20130708\Calib_20130708_files\20130708.dat
  RG_S146              C:\Users\zzhang\Desktop\my HEC-RAS Model 1\My Don Valley Models\Calib_20130708\Calib_20130708_files\20130708.dat
  RG_S147              C:\Users\zzhang\Desktop\my HEC-RAS Model 1\My Don Valley Models\Calib_20130708\Calib_20130708_files\20130708.dat
  RG_S148              C:\Users\zzhang\Desktop\my HEC-RAS Model 1\My Don Valley Models\Calib_20130708\Calib_20130708_files\20130708.dat
  RG_S149              C:\Users\zzhang\Desktop\my HEC-RAS Model 1\My Don Valley Models\Calib_20130708\Calib_20130708_files\20130708.dat
  RG_S150              C:\Users\zzhang\Desktop\my HEC-RAS Model 1\My Don Valley Models\Calib_20130708\Calib_20130708_files\20130708.dat
  RG_S151              C:\Users\zzhang\Desktop\my HEC-RAS Model 1\My Don Valley Models\Calib_20130708\Calib_20130708_files\20130708.dat
  RG_S152              C:\Users\zzhang\Desktop\my HEC-RAS Model 1\My Don Valley Models\Calib_20130708\Calib_20130708_files\20130708.dat
  RG_S153              C:\Users\zzhang\Desktop\my HEC-RAS Model 1\My Don Valley Models\Calib_20130708\Calib_20130708_files\20130708.dat
  RG_S154              C:\Users\zzhang\Desktop\my HEC-RAS Model 1\My Don Valley Models\Calib_20130708\Calib_20130708_files\20130708.dat
  RG_S155              C:\Users\zzhang\Desktop\my HEC-RAS Model 1\My Don Valley Models\Calib_20130708\Calib_20130708_files\20130708.dat
  RG_S156              C:\Users\zzhang\Desktop\my HEC-RAS Model 1\My Don Valley Models\Calib_20130708\Calib_20130708_files\20130708.dat
  RG_S157              C:\Users\zzhang\Desktop\my HEC-RAS Model 1\My Don Valley Models\Calib_20130708\Calib_20130708_files\20130708.dat
  RG_S158              C:\Users\zzhang\Desktop\my HEC-RAS Model 1\My Don Valley Models\Calib_20130708\Calib_20130708_files\20130708.dat
  RG_S159              C:\Users\zzhang\Desktop\my HEC-RAS Model 1\My Don Valley Models\Calib_20130708\Calib_20130708_files\20130708.dat
  RG_S160              C:\Users\zzhang\Desktop\my HEC-RAS Model 1\My Don Valley Models\Calib_20130708\Calib_20130708_files\20130708.dat
  RG_S161              C:\Users\zzhang\Desktop\my HEC-RAS Model 1\My Don Valley Models\Calib_20130708\Calib_20130708_files\20130708.dat
  RG_S162              C:\Users\zzhang\Desktop\my HEC-RAS Model 1\My Don Valley Models\Calib_20130708\Calib_20130708_files\20130708.dat
  RG_S163              C:\Users\zzhang\Desktop\my HEC-RAS Model 1\My Don Valley Models\Calib_20130708\Calib_20130708_files\20130708.dat
  RG_S164              C:\Users\zzhang\Desktop\my HEC-RAS Model 1\My Don Valley Models\Calib_20130708\Calib_20130708_files\20130708.dat
  RG_S165              C:\Users\zzhang\Desktop\my HEC-RAS Model 1\My Don Valley Models\Calib_20130708\Calib_20130708_files\20130708.dat
  RG_S166              C:\Users\zzhang\Desktop\my HEC-RAS Model 1\My Don Valley Models\Calib_20130708\Calib_20130708_files\20130708.dat
  RG_S167              C:\Users\zzhang\Desktop\my HEC-RAS Model 1\My Don Valley Models\Calib_20130708\Calib_20130708_files\20130708.dat
  RG_S168              C:\Users\zzhang\Desktop\my HEC-RAS Model 1\My Don Valley Models\Calib_20130708\Calib_20130708_files\20130708.dat
  RG_S169              C:\Users\zzhang\Desktop\my HEC-RAS Model 1\My Don Valley Models\Calib_20130708\Calib_20130708_files\20130708.dat
  RG_S170              C:\Users\zzhang\Desktop\my HEC-RAS Model 1\My Don Valley Models\Calib_20130708\Calib_20130708_files\20130708.dat
  RG_S171              C:\Users\zzhang\Desktop\my HEC-RAS Model 1\My Don Valley Models\Calib_20130708\Calib_20130708_files\20130708.dat
  RG_S172              C:\Users\zzhang\Desktop\my HEC-RAS Model 1\My Don Valley Models\Calib_20130708\Calib_20130708_files\20130708.dat
  RG_S173              C:\Users\zzhang\Desktop\my HEC-RAS Model 1\My Don Valley Models\Calib_20130708\Calib_20130708_files\20130708.dat
  RG_S174              C:\Users\zzhang\Desktop\my HEC-RAS Model 1\My Don Valley Models\Calib_20130708\Calib_20130708_files\20130708.dat
  RG_S175              C:\Users\zzhang\Desktop\my HEC-RAS Model 1\My Don Valley Models\Calib_20130708\Calib_20130708_files\20130708.dat
  RG_S176              C:\Users\zzhang\Desktop\my HEC-RAS Model 1\My Don Valley Models\Calib_20130708\Calib_20130708_files\20130708.dat
  RG_S177              C:\Users\zzhang\Desktop\my HEC-RAS Model 1\My Don Valley Models\Calib_20130708\Calib_20130708_files\20130708.dat
  RG_S178              C:\Users\zzhang\Desktop\my HEC-RAS Model 1\My Don Valley Models\Calib_20130708\Calib_20130708_files\20130708.dat
  RG_S179              C:\Users\zzhang\Desktop\my HEC-RAS Model 1\My Don Valley Models\Calib_20130708\Calib_20130708_files\20130708.dat
  RG_S180              C:\Users\zzhang\Desktop\my HEC-RAS Model 1\My Don Valley Models\Calib_20130708\Calib_20130708_files\20130708.dat
  RG_S181              C:\Users\zzhang\Desktop\my HEC-RAS Model 1\My Don Valley Models\Calib_20130708\Calib_20130708_files\20130708.dat
  RG_S182              C:\Users\zzhang\Desktop\my HEC-RAS Model 1\My Don Valley Models\Calib_20130708\Calib_20130708_files\20130708.dat
  RG_S183              C:\Users\zzhang\Desktop\my HEC-RAS Model 1\My Don Valley Models\Calib_20130708\Calib_20130708_files\20130708.dat
  RG_S184              C:\Users\zzhang\Desktop\my HEC-RAS Model 1\My Don Valley Models\Calib_20130708\Calib_20130708_files\20130708.dat
  RG_S185              C:\Users\zzhang\Desktop\my HEC-RAS Model 1\My Don Valley Models\Calib_20130708\Calib_20130708_files\20130708.dat
  RG_S186              C:\Users\zzhang\Desktop\my HEC-RAS Model 1\My Don Valley Models\Calib_20130708\Calib_20130708_files\20130708.dat
  RG_S187              C:\Users\zzhang\Desktop\my HEC-RAS Model 1\My Don Valley Models\Calib_20130708\Calib_20130708_files\20130708.dat
  RG_S188              C:\Users\zzhang\Desktop\my HEC-RAS Model 1\My Don Valley Models\Calib_20130708\Calib_20130708_files\20130708.dat
  RG_S189              C:\Users\zzhang\Desktop\my HEC-RAS Model 1\My Don Valley Models\Calib_20130708\Calib_20130708_files\20130708.dat
  RG_S190              C:\Users\zzhang\Desktop\my HEC-RAS Model 1\My Don Valley Models\Calib_20130708\Calib_20130708_files\20130708.dat
  RG_S191              C:\Users\zzhang\Desktop\my HEC-RAS Model 1\My Don Valley Models\Calib_20130708\Calib_20130708_files\20130708.dat
  RG_S192              C:\Users\zzhang\Desktop\my HEC-RAS Model 1\My Don Valley Models\Calib_20130708\Calib_20130708_files\20130708.dat
  RG_S193              C:\Users\zzhang\Desktop\my HEC-RAS Model 1\My Don Valley Models\Calib_20130708\Calib_20130708_files\20130708.dat
  RG_S194              C:\Users\zzhang\Desktop\my HEC-RAS Model 1\My Don Valley Models\Calib_20130708\Calib_20130708_files\20130708.dat
  RG_S195              C:\Users\zzhang\Desktop\my HEC-RAS Model 1\My Don Valley Models\Calib_20130708\Calib_20130708_files\20130708.dat
  RG_S196              C:\Users\zzhang\Desktop\my HEC-RAS Model 1\My Don Valley Models\Calib_20130708\Calib_20130708_files\20130708.dat
  RG_S197              C:\Users\zzhang\Desktop\my HEC-RAS Model 1\My Don Valley Models\Calib_20130708\Calib_20130708_files\20130708.dat
  RG_S198              C:\Users\zzhang\Desktop\my HEC-RAS Model 1\My Don Valley Models\Calib_20130708\Calib_20130708_files\20130708.dat
  RG_S199              C:\Users\zzhang\Desktop\my HEC-RAS Model 1\My Don Valley Models\Calib_20130708\Calib_20130708_files\20130708.dat
  RG_S200              C:\Users\zzhang\Desktop\my HEC-RAS Model 1\My Don Valley Models\Calib_20130708\Calib_20130708_files\20130708.dat
  RG_S201              C:\Users\zzhang\Desktop\my HEC-RAS Model 1\My Don Valley Models\Calib_20130708\Calib_20130708_files\20130708.dat
  RG_S202              C:\Users\zzhang\Desktop\my HEC-RAS Model 1\My Don Valley Models\Calib_20130708\Calib_20130708_files\20130708.dat
  RG_S203              C:\Users\zzhang\Desktop\my HEC-RAS Model 1\My Don Valley Models\Calib_20130708\Calib_20130708_files\20130708.dat
  RG_S204              C:\Users\zzhang\Desktop\my HEC-RAS Model 1\My Don Valley Models\Calib_20130708\Calib_20130708_files\20130708.dat
  RG_S205              C:\Users\zzhang\Desktop\my HEC-RAS Model 1\My Don Valley Models\Calib_20130708\Calib_20130708_files\20130708.dat
  RG_S206              C:\Users\zzhang\Desktop\my HEC-RAS Model 1\My Don Valley Models\Calib_20130708\Calib_20130708_files\20130708.dat
  RG_S207              C:\Users\zzhang\Desktop\my HEC-RAS Model 1\My Don Valley Models\Calib_20130708\Calib_20130708_files\20130708.dat
  RG_S208              C:\Users\zzhang\Desktop\my HEC-RAS Model 1\My Don Valley Models\Calib_20130708\Calib_20130708_files\20130708.dat
  RG_S209              C:\Users\zzhang\Desktop\my HEC-RAS Model 1\My Don Valley Models\Calib_20130708\Calib_20130708_files\20130708.dat
  RG_S210              C:\Users\zzhang\Desktop\my HEC-RAS Model 1\My Don Valley Models\Calib_20130708\Calib_20130708_files\20130708.dat
  RG_S211              C:\Users\zzhang\Desktop\my HEC-RAS Model 1\My Don Valley Models\Calib_20130708\Calib_20130708_files\20130708.dat
  RG_S212              C:\Users\zzhang\Desktop\my HEC-RAS Model 1\My Don Valley Models\Calib_20130708\Calib_20130708_files\20130708.dat
  RG_S213              C:\Users\zzhang\Desktop\my HEC-RAS Model 1\My Don Valley Models\Calib_20130708\Calib_20130708_files\20130708.dat
  RG_S214              C:\Users\zzhang\Desktop\my HEC-RAS Model 1\My Don Valley Models\Calib_20130708\Calib_20130708_files\20130708.dat
  RG_S215              C:\Users\zzhang\Desktop\my HEC-RAS Model 1\My Don Valley Models\Calib_20130708\Calib_20130708_files\20130708.dat
  RG_S216              C:\Users\zzhang\Desktop\my HEC-RAS Model 1\My Don Valley Models\Calib_20130708\Calib_20130708_files\20130708.dat
  RG_S217              C:\Users\zzhang\Desktop\my HEC-RAS Model 1\My Don Valley Models\Calib_20130708\Calib_20130708_files\20130708.dat
  RG_S218              C:\Users\zzhang\Desktop\my HEC-RAS Model 1\My Don Valley Models\Calib_20130708\Calib_20130708_files\20130708.dat
  RG_S219              C:\Users\zzhang\Desktop\my HEC-RAS Model 1\My Don Valley Models\Calib_20130708\Calib_20130708_files\20130708.dat
  RG_S220              C:\Users\zzhang\Desktop\my HEC-RAS Model 1\My Don Valley Models\Calib_20130708\Calib_20130708_files\20130708.dat
  RG_S221              C:\Users\zzhang\Desktop\my HEC-RAS Model 1\My Don Valley Models\Calib_20130708\Calib_20130708_files\20130708.dat
  RG_S222              C:\Users\zzhang\Desktop\my HEC-RAS Model 1\My Don Valley Models\Calib_20130708\Calib_20130708_files\20130708.dat
  RG_S223              C:\Users\zzhang\Desktop\my HEC-RAS Model 1\My Don Valley Models\Calib_20130708\Calib_20130708_files\20130708.dat
  RG_S224              C:\Users\zzhang\Desktop\my HEC-RAS Model 1\My Don Valley Models\Calib_20130708\Calib_20130708_files\20130708.dat
  RG_S225              C:\Users\zzhang\Desktop\my HEC-RAS Model 1\My Don Valley Models\Calib_20130708\Calib_20130708_files\20130708.dat
  RG_S226              C:\Users\zzhang\Desktop\my HEC-RAS Model 1\My Don Valley Models\Calib_20130708\Calib_20130708_files\20130708.dat
  RG_S227              C:\Users\zzhang\Desktop\my HEC-RAS Model 1\My Don Valley Models\Calib_20130708\Calib_20130708_files\20130708.dat
  RG_S228              C:\Users\zzhang\Desktop\my HEC-RAS Model 1\My Don Valley Models\Calib_20130708\Calib_20130708_files\20130708.dat
  RG_S229              C:\Users\zzhang\Desktop\my HEC-RAS Model 1\My Don Valley Models\Calib_20130708\Calib_20130708_files\20130708.dat
  RG_S230              C:\Users\zzhang\Desktop\my HEC-RAS Model 1\My Don Valley Models\Calib_20130708\Calib_20130708_files\20130708.dat
  RG_S231              C:\Users\zzhang\Desktop\my HEC-RAS Model 1\My Don Valley Models\Calib_20130708\Calib_20130708_files\20130708.dat
  RG_S232              C:\Users\zzhang\Desktop\my HEC-RAS Model 1\My Don Valley Models\Calib_20130708\Calib_20130708_files\20130708.dat
  RG_S233              C:\Users\zzhang\Desktop\my HEC-RAS Model 1\My Don Valley Models\Calib_20130708\Calib_20130708_files\20130708.dat
  RG_S234              C:\Users\zzhang\Desktop\my HEC-RAS Model 1\My Don Valley Models\Calib_20130708\Calib_20130708_files\20130708.dat
  RG_S235              C:\Users\zzhang\Desktop\my HEC-RAS Model 1\My Don Valley Models\Calib_20130708\Calib_20130708_files\20130708.dat
  RG_S236              C:\Users\zzhang\Desktop\my HEC-RAS Model 1\My Don Valley Models\Calib_20130708\Calib_20130708_files\20130708.dat
  RG_S237              C:\Users\zzhang\Desktop\my HEC-RAS Model 1\My Don Valley Models\Calib_20130708\Calib_20130708_files\20130708.dat
  RG_S238              C:\Users\zzhang\Desktop\my HEC-RAS Model 1\My Don Valley Models\Calib_20130708\Calib_20130708_files\20130708.dat
  RG_S239              C:\Users\zzhang\Desktop\my HEC-RAS Model 1\My Don Valley Models\Calib_20130708\Calib_20130708_files\20130708.dat
  RG_S240              C:\Users\zzhang\Desktop\my HEC-RAS Model 1\My Don Valley Models\Calib_20130708\Calib_20130708_files\20130708.dat
  RG_S241              C:\Users\zzhang\Desktop\my HEC-RAS Model 1\My Don Valley Models\Calib_20130708\Calib_20130708_files\20130708.dat
  RG_S242              C:\Users\zzhang\Desktop\my HEC-RAS Model 1\My Don Valley Models\Calib_20130708\Calib_20130708_files\20130708.dat
  RG_S243              C:\Users\zzhang\Desktop\my HEC-RAS Model 1\My Don Valley Models\Calib_20130708\Calib_20130708_files\20130708.dat
  RG_S244              C:\Users\zzhang\Desktop\my HEC-RAS Model 1\My Don Valley Models\Calib_20130708\Calib_20130708_files\20130708.dat
  RG_S245              C:\Users\zzhang\Desktop\my HEC-RAS Model 1\My Don Valley Models\Calib_20130708\Calib_20130708_files\20130708.dat
  RG_S246              C:\Users\zzhang\Desktop\my HEC-RAS Model 1\My Don Valley Models\Calib_20130708\Calib_20130708_files\20130708.dat
  RG_S247              C:\Users\zzhang\Desktop\my HEC-RAS Model 1\My Don Valley Models\Calib_20130708\Calib_20130708_files\20130708.dat
  RG_S248              C:\Users\zzhang\Desktop\my HEC-RAS Model 1\My Don Valley Models\Calib_20130708\Calib_20130708_files\20130708.dat
  RG_S249              C:\Users\zzhang\Desktop\my HEC-RAS Model 1\My Don Valley Models\Calib_20130708\Calib_20130708_files\20130708.dat
  RG_S250              C:\Users\zzhang\Desktop\my HEC-RAS Model 1\My Don Valley Models\Calib_20130708\Calib_20130708_files\20130708.dat
  RG_S251              C:\Users\zzhang\Desktop\my HEC-RAS Model 1\My Don Valley Models\Calib_20130708\Calib_20130708_files\20130708.dat
  RG_S252              C:\Users\zzhang\Desktop\my HEC-RAS Model 1\My Don Valley Models\Calib_20130708\Calib_20130708_files\20130708.dat
  RG_S253              C:\Users\zzhang\Desktop\my HEC-RAS Model 1\My Don Valley Models\Calib_20130708\Calib_20130708_files\20130708.dat
  RG_S254              C:\Users\zzhang\Desktop\my HEC-RAS Model 1\My Don Valley Models\Calib_20130708\Calib_20130708_files\20130708.dat
  RG_S255              C:\Users\zzhang\Desktop\my HEC-RAS Model 1\My Don Valley Models\Calib_20130708\Calib_20130708_files\20130708.dat
  RG_S256              C:\Users\zzhang\Desktop\my HEC-RAS Model 1\My Don Valley Models\Calib_20130708\Calib_20130708_files\20130708.dat
  RG_S257              C:\Users\zzhang\Desktop\my HEC-RAS Model 1\My Don Valley Models\Calib_20130708\Calib_20130708_files\20130708.dat
  RG_S258              C:\Users\zzhang\Desktop\my HEC-RAS Model 1\My Don Valley Models\Calib_20130708\Calib_20130708_files\20130708.dat
  RG_S259              C:\Users\zzhang\Desktop\my HEC-RAS Model 1\My Don Valley Models\Calib_20130708\Calib_20130708_files\20130708.dat
  RG_S260              C:\Users\zzhang\Desktop\my HEC-RAS Model 1\My Don Valley Models\Calib_20130708\Calib_20130708_files\20130708.dat
  RG_S261              C:\Users\zzhang\Desktop\my HEC-RAS Model 1\My Don Valley Models\Calib_20130708\Calib_20130708_files\20130708.dat
  RG_S262              C:\Users\zzhang\Desktop\my HEC-RAS Model 1\My Don Valley Models\Calib_20130708\Calib_20130708_files\20130708.dat
  RG_S263              C:\Users\zzhang\Desktop\my HEC-RAS Model 1\My Don Valley Models\Calib_20130708\Calib_20130708_files\20130708.dat
  RG_S264              C:\Users\zzhang\Desktop\my HEC-RAS Model 1\My Don Valley Models\Calib_20130708\Calib_20130708_files\20130708.dat
  RG_S265              C:\Users\zzhang\Desktop\my HEC-RAS Model 1\My Don Valley Models\Calib_20130708\Calib_20130708_files\20130708.dat
  RG_S266              C:\Users\zzhang\Desktop\my HEC-RAS Model 1\My Don Valley Models\Calib_20130708\Calib_20130708_files\20130708.dat
  RG_S267              C:\Users\zzhang\Desktop\my HEC-RAS Model 1\My Don Valley Models\Calib_20130708\Calib_20130708_files\20130708.dat
  RG_S268              C:\Users\zzhang\Desktop\my HEC-RAS Model 1\My Don Valley Models\Calib_20130708\Calib_20130708_files\20130708.dat
  RG_S269              C:\Users\zzhang\Desktop\my HEC-RAS Model 1\My Don Valley Models\Calib_20130708\Calib_20130708_files\20130708.dat
  RG_S270              C:\Users\zzhang\Desktop\my HEC-RAS Model 1\My Don Valley Models\Calib_20130708\Calib_20130708_files\20130708.dat
  RG_S271              C:\Users\zzhang\Desktop\my HEC-RAS Model 1\My Don Valley Models\Calib_20130708\Calib_20130708_files\20130708.dat
  RG_S272              C:\Users\zzhang\Desktop\my HEC-RAS Model 1\My Don Valley Models\Calib_20130708\Calib_20130708_files\20130708.dat
  RG_S273              C:\Users\zzhang\Desktop\my HEC-RAS Model 1\My Don Valley Models\Calib_20130708\Calib_20130708_files\20130708.dat
  RG_S274              C:\Users\zzhang\Desktop\my HEC-RAS Model 1\My Don Valley Models\Calib_20130708\Calib_20130708_files\20130708.dat
  RG_S275              C:\Users\zzhang\Desktop\my HEC-RAS Model 1\My Don Valley Models\Calib_20130708\Calib_20130708_files\20130708.dat
  RG_S276              C:\Users\zzhang\Desktop\my HEC-RAS Model 1\My Don Valley Models\Calib_20130708\Calib_20130708_files\20130708.dat
  RG_S277              C:\Users\zzhang\Desktop\my HEC-RAS Model 1\My Don Valley Models\Calib_20130708\Calib_20130708_files\20130708.dat
  RG_S278              C:\Users\zzhang\Desktop\my HEC-RAS Model 1\My Don Valley Models\Calib_20130708\Calib_20130708_files\20130708.dat
  RG_S279              C:\Users\zzhang\Desktop\my HEC-RAS Model 1\My Don Valley Models\Calib_20130708\Calib_20130708_files\20130708.dat
  RG_S280              C:\Users\zzhang\Desktop\my HEC-RAS Model 1\My Don Valley Models\Calib_20130708\Calib_20130708_files\20130708.dat
  RG_S281              C:\Users\zzhang\Desktop\my HEC-RAS Model 1\My Don Valley Models\Calib_20130708\Calib_20130708_files\20130708.dat
  RG_S282              C:\Users\zzhang\Desktop\my HEC-RAS Model 1\My Don Valley Models\Calib_20130708\Calib_20130708_files\20130708.dat
  RG_S283              C:\Users\zzhang\Desktop\my HEC-RAS Model 1\My Don Valley Models\Calib_20130708\Calib_20130708_files\20130708.dat
  RG_S284              C:\Users\zzhang\Desktop\my HEC-RAS Model 1\My Don Valley Models\Calib_20130708\Calib_20130708_files\20130708.dat
  RG_S285              C:\Users\zzhang\Desktop\my HEC-RAS Model 1\My Don Valley Models\Calib_20130708\Calib_20130708_files\20130708.dat
  RG_S286              C:\Users\zzhang\Desktop\my HEC-RAS Model 1\My Don Valley Models\Calib_20130708\Calib_20130708_files\20130708.dat
  RG_S287              C:\Users\zzhang\Desktop\my HEC-RAS Model 1\My Don Valley Models\Calib_20130708\Calib_20130708_files\20130708.dat
  RG_S288              C:\Users\zzhang\Desktop\my HEC-RAS Model 1\My Don Valley Models\Calib_20130708\Calib_20130708_files\20130708.dat
  RG_S289              C:\Users\zzhang\Desktop\my HEC-RAS Model 1\My Don Valley Models\Calib_20130708\Calib_20130708_files\20130708.dat
  RG_S290              C:\Users\zzhang\Desktop\my HEC-RAS Model 1\My Don Valley Models\Calib_20130708\Calib_20130708_files\20130708.dat
  RG_S291              C:\Users\zzhang\Desktop\my HEC-RAS Model 1\My Don Valley Models\Calib_20130708\Calib_20130708_files\20130708.dat
  RG_S292              C:\Users\zzhang\Desktop\my HEC-RAS Model 1\My Don Valley Models\Calib_20130708\Calib_20130708_files\20130708.dat
  RG_S293              C:\Users\zzhang\Desktop\my HEC-RAS Model 1\My Don Valley Models\Calib_20130708\Calib_20130708_files\20130708.dat
  RG_S294              C:\Users\zzhang\Desktop\my HEC-RAS Model 1\My Don Valley Models\Calib_20130708\Calib_20130708_files\20130708.dat
  RG_S295              C:\Users\zzhang\Desktop\my HEC-RAS Model 1\My Don Valley Models\Calib_20130708\Calib_20130708_files\20130708.dat
  RG_S296              C:\Users\zzhang\Desktop\my HEC-RAS Model 1\My Don Valley Models\Calib_20130708\Calib_20130708_files\20130708.dat
  RG_S297              C:\Users\zzhang\Desktop\my HEC-RAS Model 1\My Don Valley Models\Calib_20130708\Calib_20130708_files\20130708.dat
  RG_S298              C:\Users\zzhang\Desktop\my HEC-RAS Model 1\My Don Valley Models\Calib_20130708\Calib_20130708_files\20130708.dat
  RG_S299              C:\Users\zzhang\Desktop\my HEC-RAS Model 1\My Don Valley Models\Calib_20130708\Calib_20130708_files\20130708.dat
  RG_S300              C:\Users\zzhang\Desktop\my HEC-RAS Model 1\My Don Valley Models\Calib_20130708\Calib_20130708_files\20130708.dat
  RG_S301              C:\Users\zzhang\Desktop\my HEC-RAS Model 1\My Don Valley Models\Calib_20130708\Calib_20130708_files\20130708.dat
  RG_S302              C:\Users\zzhang\Desktop\my HEC-RAS Model 1\My Don Valley Models\Calib_20130708\Calib_20130708_files\20130708.dat
  RG_S303              C:\Users\zzhang\Desktop\my HEC-RAS Model 1\My Don Valley Models\Calib_20130708\Calib_20130708_files\20130708.dat
  RG_S304              C:\Users\zzhang\Desktop\my HEC-RAS Model 1\My Don Valley Models\Calib_20130708\Calib_20130708_files\20130708.dat
  RG_S305              C:\Users\zzhang\Desktop\my HEC-RAS Model 1\My Don Valley Models\Calib_20130708\Calib_20130708_files\20130708.dat
  RG_S306              C:\Users\zzhang\Desktop\my HEC-RAS Model 1\My Don Valley Models\Calib_20130708\Calib_20130708_files\20130708.dat
  RG_S307              C:\Users\zzhang\Desktop\my HEC-RAS Model 1\My Don Valley Models\Calib_20130708\Calib_20130708_files\20130708.dat
  RG_S308              C:\Users\zzhang\Desktop\my HEC-RAS Model 1\My Don Valley Models\Calib_20130708\Calib_20130708_files\20130708.dat
  RG_S309              C:\Users\zzhang\Desktop\my HEC-RAS Model 1\My Don Valley Models\Calib_20130708\Calib_20130708_files\20130708.dat
  RG_S310              C:\Users\zzhang\Desktop\my HEC-RAS Model 1\My Don Valley Models\Calib_20130708\Calib_20130708_files\20130708.dat
  RG_S311              C:\Users\zzhang\Desktop\my HEC-RAS Model 1\My Don Valley Models\Calib_20130708\Calib_20130708_files\20130708.dat
  RG_S312              C:\Users\zzhang\Desktop\my HEC-RAS Model 1\My Don Valley Models\Calib_20130708\Calib_20130708_files\20130708.dat
  RG_S313              C:\Users\zzhang\Desktop\my HEC-RAS Model 1\My Don Valley Models\Calib_20130708\Calib_20130708_files\20130708.dat
  RG_S314              C:\Users\zzhang\Desktop\my HEC-RAS Model 1\My Don Valley Models\Calib_20130708\Calib_20130708_files\20130708.dat
  RG_S315              C:\Users\zzhang\Desktop\my HEC-RAS Model 1\My Don Valley Models\Calib_20130708\Calib_20130708_files\20130708.dat
  RG_S316              C:\Users\zzhang\Desktop\my HEC-RAS Model 1\My Don Valley Models\Calib_20130708\Calib_20130708_files\20130708.dat
  RG_S317              C:\Users\zzhang\Desktop\my HEC-RAS Model 1\My Don Valley Models\Calib_20130708\Calib_20130708_files\20130708.dat
  RG_S318              C:\Users\zzhang\Desktop\my HEC-RAS Model 1\My Don Valley Models\Calib_20130708\Calib_20130708_files\20130708.dat
  RG_S319              C:\Users\zzhang\Desktop\my HEC-RAS Model 1\My Don Valley Models\Calib_20130708\Calib_20130708_files\20130708.dat
  RG_S320              C:\Users\zzhang\Desktop\my HEC-RAS Model 1\My Don Valley Models\Calib_20130708\Calib_20130708_files\20130708.dat
  RG_S321              C:\Users\zzhang\Desktop\my HEC-RAS Model 1\My Don Valley Models\Calib_20130708\Calib_20130708_files\20130708.dat
  RG_S322              C:\Users\zzhang\Desktop\my HEC-RAS Model 1\My Don Valley Models\Calib_20130708\Calib_20130708_files\20130708.dat
  RG_S323              C:\Users\zzhang\Desktop\my HEC-RAS Model 1\My Don Valley Models\Calib_20130708\Calib_20130708_files\20130708.dat
  RG_S324              C:\Users\zzhang\Desktop\my HEC-RAS Model 1\My Don Valley Models\Calib_20130708\Calib_20130708_files\20130708.dat
  RG_S325              C:\Users\zzhang\Desktop\my HEC-RAS Model 1\My Don Valley Models\Calib_20130708\Calib_20130708_files\20130708.dat
  RG_S326              C:\Users\zzhang\Desktop\my HEC-RAS Model 1\My Don Valley Models\Calib_20130708\Calib_20130708_files\20130708.dat
  RG_S327              C:\Users\zzhang\Desktop\my HEC-RAS Model 1\My Don Valley Models\Calib_20130708\Calib_20130708_files\20130708.dat
  RG_S328              C:\Users\zzhang\Desktop\my HEC-RAS Model 1\My Don Valley Models\Calib_20130708\Calib_20130708_files\20130708.dat
  RG_S329              C:\Users\zzhang\Desktop\my HEC-RAS Model 1\My Don Valley Models\Calib_20130708\Calib_20130708_files\20130708.dat
  RG_S330              C:\Users\zzhang\Desktop\my HEC-RAS Model 1\My Don Valley Models\Calib_20130708\Calib_20130708_files\20130708.dat
  RG_S331              C:\Users\zzhang\Desktop\my HEC-RAS Model 1\My Don Valley Models\Calib_20130708\Calib_20130708_files\20130708.dat
  RG_S332              C:\Users\zzhang\Desktop\my HEC-RAS Model 1\My Don Valley Models\Calib_20130708\Calib_20130708_files\20130708.dat
  RG_S333              C:\Users\zzhang\Desktop\my HEC-RAS Model 1\My Don Valley Models\Calib_20130708\Calib_20130708_files\20130708.dat
  RG_S334              C:\Users\zzhang\Desktop\my HEC-RAS Model 1\My Don Valley Models\Calib_20130708\Calib_20130708_files\20130708.dat
  RG_S335              C:\Users\zzhang\Desktop\my HEC-RAS Model 1\My Don Valley Models\Calib_20130708\Calib_20130708_files\20130708.dat
  RG_S336              C:\Users\zzhang\Desktop\my HEC-RAS Model 1\My Don Valley Models\Calib_20130708\Calib_20130708_files\20130708.dat
  RG_S337              C:\Users\zzhang\Desktop\my HEC-RAS Model 1\My Don Valley Models\Calib_20130708\Calib_20130708_files\20130708.dat
  RG_S338              C:\Users\zzhang\Desktop\my HEC-RAS Model 1\My Don Valley Models\Calib_20130708\Calib_20130708_files\20130708.dat
  RG_S339              C:\Users\zzhang\Desktop\my HEC-RAS Model 1\My Don Valley Models\Calib_20130708\Calib_20130708_files\20130708.dat
  RG_S340              C:\Users\zzhang\Desktop\my HEC-RAS Model 1\My Don Valley Models\Calib_20130708\Calib_20130708_files\20130708.dat
  RG_S341              C:\Users\zzhang\Desktop\my HEC-RAS Model 1\My Don Valley Models\Calib_20130708\Calib_20130708_files\20130708.dat
  RG_S342              C:\Users\zzhang\Desktop\my HEC-RAS Model 1\My Don Valley Models\Calib_20130708\Calib_20130708_files\20130708.dat
  RG_S343              C:\Users\zzhang\Desktop\my HEC-RAS Model 1\My Don Valley Models\Calib_20130708\Calib_20130708_files\20130708.dat
  RG_S344              C:\Users\zzhang\Desktop\my HEC-RAS Model 1\My Don Valley Models\Calib_20130708\Calib_20130708_files\20130708.dat
  RG_S345              C:\Users\zzhang\Desktop\my HEC-RAS Model 1\My Don Valley Models\Calib_20130708\Calib_20130708_files\20130708.dat
  RG_S346              C:\Users\zzhang\Desktop\my HEC-RAS Model 1\My Don Valley Models\Calib_20130708\Calib_20130708_files\20130708.dat
  RG_S347              C:\Users\zzhang\Desktop\my HEC-RAS Model 1\My Don Valley Models\Calib_20130708\Calib_20130708_files\20130708.dat
  RG_S348              C:\Users\zzhang\Desktop\my HEC-RAS Model 1\My Don Valley Models\Calib_20130708\Calib_20130708_files\20130708.dat
  RG_S349              C:\Users\zzhang\Desktop\my HEC-RAS Model 1\My Don Valley Models\Calib_20130708\Calib_20130708_files\20130708.dat
  RG_S350              C:\Users\zzhang\Desktop\my HEC-RAS Model 1\My Don Valley Models\Calib_20130708\Calib_20130708_files\20130708.dat
  RG_S351              C:\Users\zzhang\Desktop\my HEC-RAS Model 1\My Don Valley Models\Calib_20130708\Calib_20130708_files\20130708.dat
  RG_S352              C:\Users\zzhang\Desktop\my HEC-RAS Model 1\My Don Valley Models\Calib_20130708\Calib_20130708_files\20130708.dat
  RG_S353              C:\Users\zzhang\Desktop\my HEC-RAS Model 1\My Don Valley Models\Calib_20130708\Calib_20130708_files\20130708.dat
  RG_S354              C:\Users\zzhang\Desktop\my HEC-RAS Model 1\My Don Valley Models\Calib_20130708\Calib_20130708_files\20130708.dat
  RG_S355              C:\Users\zzhang\Desktop\my HEC-RAS Model 1\My Don Valley Models\Calib_20130708\Calib_20130708_files\20130708.dat
  RG_S356              C:\Users\zzhang\Desktop\my HEC-RAS Model 1\My Don Valley Models\Calib_20130708\Calib_20130708_files\20130708.dat
  RG_S357              C:\Users\zzhang\Desktop\my HEC-RAS Model 1\My Don Valley Models\Calib_20130708\Calib_20130708_files\20130708.dat
  RG_S358              C:\Users\zzhang\Desktop\my HEC-RAS Model 1\My Don Valley Models\Calib_20130708\Calib_20130708_files\20130708.dat
  RG_S359              C:\Users\zzhang\Desktop\my HEC-RAS Model 1\My Don Valley Models\Calib_20130708\Calib_20130708_files\20130708.dat
  RG_S360              C:\Users\zzhang\Desktop\my HEC-RAS Model 1\My Don Valley Models\Calib_20130708\Calib_20130708_files\20130708.dat
  RG_S361              C:\Users\zzhang\Desktop\my HEC-RAS Model 1\My Don Valley Models\Calib_20130708\Calib_20130708_files\20130708.dat
  RG_S362              C:\Users\zzhang\Desktop\my HEC-RAS Model 1\My Don Valley Models\Calib_20130708\Calib_20130708_files\20130708.dat
  RG_S363              C:\Users\zzhang\Desktop\my HEC-RAS Model 1\My Don Valley Models\Calib_20130708\Calib_20130708_files\20130708.dat
  RG_S364              C:\Users\zzhang\Desktop\my HEC-RAS Model 1\My Don Valley Models\Calib_20130708\Calib_20130708_files\20130708.dat
  RG_S365              C:\Users\zzhang\Desktop\my HEC-RAS Model 1\My Don Valley Models\Calib_20130708\Calib_20130708_files\20130708.dat
  RG_S366              C:\Users\zzhang\Desktop\my HEC-RAS Model 1\My Don Valley Models\Calib_20130708\Calib_20130708_files\20130708.dat
  RG_S367              C:\Users\zzhang\Desktop\my HEC-RAS Model 1\My Don Valley Models\Calib_20130708\Calib_20130708_files\20130708.dat
  RG_S368              C:\Users\zzhang\Desktop\my HEC-RAS Model 1\My Don Valley Models\Calib_20130708\Calib_20130708_files\20130708.dat
  RG_S369              C:\Users\zzhang\Desktop\my HEC-RAS Model 1\My Don Valley Models\Calib_20130708\Calib_20130708_files\20130708.dat
  RG_S370              C:\Users\zzhang\Desktop\my HEC-RAS Model 1\My Don Valley Models\Calib_20130708\Calib_20130708_files\20130708.dat
  RG_S371              C:\Users\zzhang\Desktop\my HEC-RAS Model 1\My Don Valley Models\Calib_20130708\Calib_20130708_files\20130708.dat
  RG_S372              C:\Users\zzhang\Desktop\my HEC-RAS Model 1\My Don Valley Models\Calib_20130708\Calib_20130708_files\20130708.dat
  RG_S373              C:\Users\zzhang\Desktop\my HEC-RAS Model 1\My Don Valley Models\Calib_20130708\Calib_20130708_files\20130708.dat
  RG_S374              C:\Users\zzhang\Desktop\my HEC-RAS Model 1\My Don Valley Models\Calib_20130708\Calib_20130708_files\20130708.dat
  RG_S375              C:\Users\zzhang\Desktop\my HEC-RAS Model 1\My Don Valley Models\Calib_20130708\Calib_20130708_files\20130708.dat
  RG_S376              C:\Users\zzhang\Desktop\my HEC-RAS Model 1\My Don Valley Models\Calib_20130708\Calib_20130708_files\20130708.dat
  RG_S377              C:\Users\zzhang\Desktop\my HEC-RAS Model 1\My Don Valley Models\Calib_20130708\Calib_20130708_files\20130708.dat
  RG_S378              C:\Users\zzhang\Desktop\my HEC-RAS Model 1\My Don Valley Models\Calib_20130708\Calib_20130708_files\20130708.dat
  RG_S379              C:\Users\zzhang\Desktop\my HEC-RAS Model 1\My Don Valley Models\Calib_20130708\Calib_20130708_files\20130708.dat
  RG_S380              C:\Users\zzhang\Desktop\my HEC-RAS Model 1\My Don Valley Models\Calib_20130708\Calib_20130708_files\20130708.dat
  RG_S381              C:\Users\zzhang\Desktop\my HEC-RAS Model 1\My Don Valley Models\Calib_20130708\Calib_20130708_files\20130708.dat
  RG_S382              C:\Users\zzhang\Desktop\my HEC-RAS Model 1\My Don Valley Models\Calib_20130708\Calib_20130708_files\20130708.dat
  RG_S383              C:\Users\zzhang\Desktop\my HEC-RAS Model 1\My Don Valley Models\Calib_20130708\Calib_20130708_files\20130708.dat
  RG_S384              C:\Users\zzhang\Desktop\my HEC-RAS Model 1\My Don Valley Models\Calib_20130708\Calib_20130708_files\20130708.dat
  RG_S385              C:\Users\zzhang\Desktop\my HEC-RAS Model 1\My Don Valley Models\Calib_20130708\Calib_20130708_files\20130708.dat
  RG_S386              C:\Users\zzhang\Desktop\my HEC-RAS Model 1\My Don Valley Models\Calib_20130708\Calib_20130708_files\20130708.dat
  RG_S387              C:\Users\zzhang\Desktop\my HEC-RAS Model 1\My Don Valley Models\Calib_20130708\Calib_20130708_files\20130708.dat
  RG_S388              C:\Users\zzhang\Desktop\my HEC-RAS Model 1\My Don Valley Models\Calib_20130708\Calib_20130708_files\20130708.dat
  RG_S389              C:\Users\zzhang\Desktop\my HEC-RAS Model 1\My Don Valley Models\Calib_20130708\Calib_20130708_files\20130708.dat
  RG_S390              C:\Users\zzhang\Desktop\my HEC-RAS Model 1\My Don Valley Models\Calib_20130708\Calib_20130708_files\20130708.dat
  RG_S391              C:\Users\zzhang\Desktop\my HEC-RAS Model 1\My Don Valley Models\Calib_20130708\Calib_20130708_files\20130708.dat
  RG_S392              C:\Users\zzhang\Desktop\my HEC-RAS Model 1\My Don Valley Models\Calib_20130708\Calib_20130708_files\20130708.dat
  RG_S393              C:\Users\zzhang\Desktop\my HEC-RAS Model 1\My Don Valley Models\Calib_20130708\Calib_20130708_files\20130708.dat
  RG_S394              C:\Users\zzhang\Desktop\my HEC-RAS Model 1\My Don Valley Models\Calib_20130708\Calib_20130708_files\20130708.dat
  RG_S395              C:\Users\zzhang\Desktop\my HEC-RAS Model 1\My Don Valley Models\Calib_20130708\Calib_20130708_files\20130708.dat
  RG_S396              C:\Users\zzhang\Desktop\my HEC-RAS Model 1\My Don Valley Models\Calib_20130708\Calib_20130708_files\20130708.dat
  RG_S397              C:\Users\zzhang\Desktop\my HEC-RAS Model 1\My Don Valley Models\Calib_20130708\Calib_20130708_files\20130708.dat
  RG_S398              C:\Users\zzhang\Desktop\my HEC-RAS Model 1\My Don Valley Models\Calib_20130708\Calib_20130708_files\20130708.dat
  RG_S399              C:\Users\zzhang\Desktop\my HEC-RAS Model 1\My Don Valley Models\Calib_20130708\Calib_20130708_files\20130708.dat
  RG_S400              C:\Users\zzhang\Desktop\my HEC-RAS Model 1\My Don Valley Models\Calib_20130708\Calib_20130708_files\20130708.dat
  RG_S401              C:\Users\zzhang\Desktop\my HEC-RAS Model 1\My Don Valley Models\Calib_20130708\Calib_20130708_files\20130708.dat
  RG_S402              C:\Users\zzhang\Desktop\my HEC-RAS Model 1\My Don Valley Models\Calib_20130708\Calib_20130708_files\20130708.dat
  RG_S403              C:\Users\zzhang\Desktop\my HEC-RAS Model 1\My Don Valley Models\Calib_20130708\Calib_20130708_files\20130708.dat
  RG_S404              C:\Users\zzhang\Desktop\my HEC-RAS Model 1\My Don Valley Models\Calib_20130708\Calib_20130708_files\20130708.dat
  RG_S405              C:\Users\zzhang\Desktop\my HEC-RAS Model 1\My Don Valley Models\Calib_20130708\Calib_20130708_files\20130708.dat
  RG_S406              C:\Users\zzhang\Desktop\my HEC-RAS Model 1\My Don Valley Models\Calib_20130708\Calib_20130708_files\20130708.dat
  RG_S407              C:\Users\zzhang\Desktop\my HEC-RAS Model 1\My Don Valley Models\Calib_20130708\Calib_20130708_files\20130708.dat
  RG_S408              C:\Users\zzhang\Desktop\my HEC-RAS Model 1\My Don Valley Models\Calib_20130708\Calib_20130708_files\20130708.dat
  RG_S409              C:\Users\zzhang\Desktop\my HEC-RAS Model 1\My Don Valley Models\Calib_20130708\Calib_20130708_files\20130708.dat
  RG_S410              C:\Users\zzhang\Desktop\my HEC-RAS Model 1\My Don Valley Models\Calib_20130708\Calib_20130708_files\20130708.dat
  RG_S411              C:\Users\zzhang\Desktop\my HEC-RAS Model 1\My Don Valley Models\Calib_20130708\Calib_20130708_files\20130708.dat
  RG_S412              C:\Users\zzhang\Desktop\my HEC-RAS Model 1\My Don Valley Models\Calib_20130708\Calib_20130708_files\20130708.dat
  RG_S413              C:\Users\zzhang\Desktop\my HEC-RAS Model 1\My Don Valley Models\Calib_20130708\Calib_20130708_files\20130708.dat
  RG_S414              C:\Users\zzhang\Desktop\my HEC-RAS Model 1\My Don Valley Models\Calib_20130708\Calib_20130708_files\20130708.dat
  RG_S415              C:\Users\zzhang\Desktop\my HEC-RAS Model 1\My Don Valley Models\Calib_20130708\Calib_20130708_files\20130708.dat
  RG_S416              C:\Users\zzhang\Desktop\my HEC-RAS Model 1\My Don Valley Models\Calib_20130708\Calib_20130708_files\20130708.dat
  RG_S417              C:\Users\zzhang\Desktop\my HEC-RAS Model 1\My Don Valley Models\Calib_20130708\Calib_20130708_files\20130708.dat
  RG_S418              C:\Users\zzhang\Desktop\my HEC-RAS Model 1\My Don Valley Models\Calib_20130708\Calib_20130708_files\20130708.dat
  RG_S419              C:\Users\zzhang\Desktop\my HEC-RAS Model 1\My Don Valley Models\Calib_20130708\Calib_20130708_files\20130708.dat
  RG_S420              C:\Users\zzhang\Desktop\my HEC-RAS Model 1\My Don Valley Models\Calib_20130708\Calib_20130708_files\20130708.dat
  RG_S421              C:\Users\zzhang\Desktop\my HEC-RAS Model 1\My Don Valley Models\Calib_20130708\Calib_20130708_files\20130708.dat
  RG_S422              C:\Users\zzhang\Desktop\my HEC-RAS Model 1\My Don Valley Models\Calib_20130708\Calib_20130708_files\20130708.dat
  RG_S423              C:\Users\zzhang\Desktop\my HEC-RAS Model 1\My Don Valley Models\Calib_20130708\Calib_20130708_files\20130708.dat
  RG_S424              C:\Users\zzhang\Desktop\my HEC-RAS Model 1\My Don Valley Models\Calib_20130708\Calib_20130708_files\20130708.dat
  RG_S425              C:\Users\zzhang\Desktop\my HEC-RAS Model 1\My Don Valley Models\Calib_20130708\Calib_20130708_files\20130708.dat
  RG_S426              C:\Users\zzhang\Desktop\my HEC-RAS Model 1\My Don Valley Models\Calib_20130708\Calib_20130708_files\20130708.dat
  RG_S427              C:\Users\zzhang\Desktop\my HEC-RAS Model 1\My Don Valley Models\Calib_20130708\Calib_20130708_files\20130708.dat
  RG_S428              C:\Users\zzhang\Desktop\my HEC-RAS Model 1\My Don Valley Models\Calib_20130708\Calib_20130708_files\20130708.dat
  RG_S429              C:\Users\zzhang\Desktop\my HEC-RAS Model 1\My Don Valley Models\Calib_20130708\Calib_20130708_files\20130708.dat
  RG_S430              C:\Users\zzhang\Desktop\my HEC-RAS Model 1\My Don Valley Models\Calib_20130708\Calib_20130708_files\20130708.dat
  RG_S431              C:\Users\zzhang\Desktop\my HEC-RAS Model 1\My Don Valley Models\Calib_20130708\Calib_20130708_files\20130708.dat
  RG_S432              C:\Users\zzhang\Desktop\my HEC-RAS Model 1\My Don Valley Models\Calib_20130708\Calib_20130708_files\20130708.dat
  RG_S433              C:\Users\zzhang\Desktop\my HEC-RAS Model 1\My Don Valley Models\Calib_20130708\Calib_20130708_files\20130708.dat
  RG_S434              C:\Users\zzhang\Desktop\my HEC-RAS Model 1\My Don Valley Models\Calib_20130708\Calib_20130708_files\20130708.dat
  RG_S435              C:\Users\zzhang\Desktop\my HEC-RAS Model 1\My Don Valley Models\Calib_20130708\Calib_20130708_files\20130708.dat
  RG_S436              C:\Users\zzhang\Desktop\my HEC-RAS Model 1\My Don Valley Models\Calib_20130708\Calib_20130708_files\20130708.dat
  RG_S437              C:\Users\zzhang\Desktop\my HEC-RAS Model 1\My Don Valley Models\Calib_20130708\Calib_20130708_files\20130708.dat
  RG_S438              C:\Users\zzhang\Desktop\my HEC-RAS Model 1\My Don Valley Models\Calib_20130708\Calib_20130708_files\20130708.dat
  RG_S439              C:\Users\zzhang\Desktop\my HEC-RAS Model 1\My Don Valley Models\Calib_20130708\Calib_20130708_files\20130708.dat
  RG_S440              C:\Users\zzhang\Desktop\my HEC-RAS Model 1\My Don Valley Models\Calib_20130708\Calib_20130708_files\20130708.dat
  RG_S442              C:\Users\zzhang\Desktop\my HEC-RAS Model 1\My Don Valley Models\Calib_20130708\Calib_20130708_files\20130708.dat
  RG_S443              C:\Users\zzhang\Desktop\my HEC-RAS Model 1\My Don Valley Models\Calib_20130708\Calib_20130708_files\20130708.dat
  RG_S444              C:\Users\zzhang\Desktop\my HEC-RAS Model 1\My Don Valley Models\Calib_20130708\Calib_20130708_files\20130708.dat
  RG_S445              C:\Users\zzhang\Desktop\my HEC-RAS Model 1\My Don Valley Models\Calib_20130708\Calib_20130708_files\20130708.dat
  RG_S447              C:\Users\zzhang\Desktop\my HEC-RAS Model 1\My Don Valley Models\Calib_20130708\Calib_20130708_files\20130708.dat
  RG_S448              C:\Users\zzhang\Desktop\my HEC-RAS Model 1\My Don Valley Models\Calib_20130708\Calib_20130708_files\20130708.dat
  RG_S449              C:\Users\zzhang\Desktop\my HEC-RAS Model 1\My Don Valley Models\Calib_20130708\Calib_20130708_files\20130708.dat
  RG_S450              C:\Users\zzhang\Desktop\my HEC-RAS Model 1\My Don Valley Models\Calib_20130708\Calib_20130708_files\20130708.dat
  RG_S451              C:\Users\zzhang\Desktop\my HEC-RAS Model 1\My Don Valley Models\Calib_20130708\Calib_20130708_files\20130708.dat
  RG_S452              C:\Users\zzhang\Desktop\my HEC-RAS Model 1\My Don Valley Models\Calib_20130708\Calib_20130708_files\20130708.dat
  RG_S453              C:\Users\zzhang\Desktop\my HEC-RAS Model 1\My Don Valley Models\Calib_20130708\Calib_20130708_files\20130708.dat
  RG_S454              C:\Users\zzhang\Desktop\my HEC-RAS Model 1\My Don Valley Models\Calib_20130708\Calib_20130708_files\20130708.dat
  RG_S455              C:\Users\zzhang\Desktop\my HEC-RAS Model 1\My Don Valley Models\Calib_20130708\Calib_20130708_files\20130708.dat
  RG_S456              C:\Users\zzhang\Desktop\my HEC-RAS Model 1\My Don Valley Models\Calib_20130708\Calib_20130708_files\20130708.dat
  RG_S457              C:\Users\zzhang\Desktop\my HEC-RAS Model 1\My Don Valley Models\Calib_20130708\Calib_20130708_files\20130708.dat
  RG_S458              C:\Users\zzhang\Desktop\my HEC-RAS Model 1\My Don Valley Models\Calib_20130708\Calib_20130708_files\20130708.dat
  RG_S459              C:\Users\zzhang\Desktop\my HEC-RAS Model 1\My Don Valley Models\Calib_20130708\Calib_20130708_files\20130708.dat
  RG_S460              C:\Users\zzhang\Desktop\my HEC-RAS Model 1\My Don Valley Models\Calib_20130708\Calib_20130708_files\20130708.dat
  RG_S461              C:\Users\zzhang\Desktop\my HEC-RAS Model 1\My Don Valley Models\Calib_20130708\Calib_20130708_files\20130708.dat
  RG_S462              C:\Users\zzhang\Desktop\my HEC-RAS Model 1\My Don Valley Models\Calib_20130708\Calib_20130708_files\20130708.dat
  RG_S463              C:\Users\zzhang\Desktop\my HEC-RAS Model 1\My Don Valley Models\Calib_20130708\Calib_20130708_files\20130708.dat
  RG_S464              C:\Users\zzhang\Desktop\my HEC-RAS Model 1\My Don Valley Models\Calib_20130708\Calib_20130708_files\20130708.dat
  RG_S465              C:\Users\zzhang\Desktop\my HEC-RAS Model 1\My Don Valley Models\Calib_20130708\Calib_20130708_files\20130708.dat
  RG_S466              C:\Users\zzhang\Desktop\my HEC-RAS Model 1\My Don Valley Models\Calib_20130708\Calib_20130708_files\20130708.dat
  RG_S467              C:\Users\zzhang\Desktop\my HEC-RAS Model 1\My Don Valley Models\Calib_20130708\Calib_20130708_files\20130708.dat
  RG_S468              C:\Users\zzhang\Desktop\my HEC-RAS Model 1\My Don Valley Models\Calib_20130708\Calib_20130708_files\20130708.dat
  RG_S469              C:\Users\zzhang\Desktop\my HEC-RAS Model 1\My Don Valley Models\Calib_20130708\Calib_20130708_files\20130708.dat
  RG_S470              C:\Users\zzhang\Desktop\my HEC-RAS Model 1\My Don Valley Models\Calib_20130708\Calib_20130708_files\20130708.dat
  RG_S471              C:\Users\zzhang\Desktop\my HEC-RAS Model 1\My Don Valley Models\Calib_20130708\Calib_20130708_files\20130708.dat
  RG_S472              C:\Users\zzhang\Desktop\my HEC-RAS Model 1\My Don Valley Models\Calib_20130708\Calib_20130708_files\20130708.dat
  RG_S473              C:\Users\zzhang\Desktop\my HEC-RAS Model 1\My Don Valley Models\Calib_20130708\Calib_20130708_files\20130708.dat
  RG_S474              C:\Users\zzhang\Desktop\my HEC-RAS Model 1\My Don Valley Models\Calib_20130708\Calib_20130708_files\20130708.dat
  RG_S475              C:\Users\zzhang\Desktop\my HEC-RAS Model 1\My Don Valley Models\Calib_20130708\Calib_20130708_files\20130708.dat
  RG_S476              C:\Users\zzhang\Desktop\my HEC-RAS Model 1\My Don Valley Models\Calib_20130708\Calib_20130708_files\20130708.dat
  RG_S477              C:\Users\zzhang\Desktop\my HEC-RAS Model 1\My Don Valley Models\Calib_20130708\Calib_20130708_files\20130708.dat
  RG_S478              C:\Users\zzhang\Desktop\my HEC-RAS Model 1\My Don Valley Models\Calib_20130708\Calib_20130708_files\20130708.dat
  RG_S479              C:\Users\zzhang\Desktop\my HEC-RAS Model 1\My Don Valley Models\Calib_20130708\Calib_20130708_files\20130708.dat
  RG_S480              C:\Users\zzhang\Desktop\my HEC-RAS Model 1\My Don Valley Models\Calib_20130708\Calib_20130708_files\20130708.dat
  RG_S481              C:\Users\zzhang\Desktop\my HEC-RAS Model 1\My Don Valley Models\Calib_20130708\Calib_20130708_files\20130708.dat
  RG_S482              C:\Users\zzhang\Desktop\my HEC-RAS Model 1\My Don Valley Models\Calib_20130708\Calib_20130708_files\20130708.dat
  RG_S483              C:\Users\zzhang\Desktop\my HEC-RAS Model 1\My Don Valley Models\Calib_20130708\Calib_20130708_files\20130708.dat
  RG_S484              C:\Users\zzhang\Desktop\my HEC-RAS Model 1\My Don Valley Models\Calib_20130708\Calib_20130708_files\20130708.dat
  RG_S485              C:\Users\zzhang\Desktop\my HEC-RAS Model 1\My Don Valley Models\Calib_20130708\Calib_20130708_files\20130708.dat
  RG_S486              C:\Users\zzhang\Desktop\my HEC-RAS Model 1\My Don Valley Models\Calib_20130708\Calib_20130708_files\20130708.dat
  RG_S487              C:\Users\zzhang\Desktop\my HEC-RAS Model 1\My Don Valley Models\Calib_20130708\Calib_20130708_files\20130708.dat
  RG_S488              C:\Users\zzhang\Desktop\my HEC-RAS Model 1\My Don Valley Models\Calib_20130708\Calib_20130708_files\20130708.dat
  RG_S489              C:\Users\zzhang\Desktop\my HEC-RAS Model 1\My Don Valley Models\Calib_20130708\Calib_20130708_files\20130708.dat
  RG_S490              C:\Users\zzhang\Desktop\my HEC-RAS Model 1\My Don Valley Models\Calib_20130708\Calib_20130708_files\20130708.dat
  RG_S491              C:\Users\zzhang\Desktop\my HEC-RAS Model 1\My Don Valley Models\Calib_20130708\Calib_20130708_files\20130708.dat
  RG_S492              C:\Users\zzhang\Desktop\my HEC-RAS Model 1\My Don Valley Models\Calib_20130708\Calib_20130708_files\20130708.dat
  RG_S493              C:\Users\zzhang\Desktop\my HEC-RAS Model 1\My Don Valley Models\Calib_20130708\Calib_20130708_files\20130708.dat
  RG_S494              C:\Users\zzhang\Desktop\my HEC-RAS Model 1\My Don Valley Models\Calib_20130708\Calib_20130708_files\20130708.dat
  RG_S495              C:\Users\zzhang\Desktop\my HEC-RAS Model 1\My Don Valley Models\Calib_20130708\Calib_20130708_files\20130708.dat
  RG_S496              C:\Users\zzhang\Desktop\my HEC-RAS Model 1\My Don Valley Models\Calib_20130708\Calib_20130708_files\20130708.dat
  RG_S497              C:\Users\zzhang\Desktop\my HEC-RAS Model 1\My Don Valley Models\Calib_20130708\Calib_20130708_files\20130708.dat
  RG_S498              C:\Users\zzhang\Desktop\my HEC-RAS Model 1\My Don Valley Models\Calib_20130708\Calib_20130708_files\20130708.dat
  RG_S499              C:\Users\zzhang\Desktop\my HEC-RAS Model 1\My Don Valley Models\Calib_20130708\Calib_20130708_files\20130708.dat
  RG_S500              C:\Users\zzhang\Desktop\my HEC-RAS Model 1\My Don Valley Models\Calib_20130708\Calib_20130708_files\20130708.dat
  RG_S501              C:\Users\zzhang\Desktop\my HEC-RAS Model 1\My Don Valley Models\Calib_20130708\Calib_20130708_files\20130708.dat
  RG_S502              C:\Users\zzhang\Desktop\my HEC-RAS Model 1\My Don Valley Models\Calib_20130708\Calib_20130708_files\20130708.dat
  RG_S503              C:\Users\zzhang\Desktop\my HEC-RAS Model 1\My Don Valley Models\Calib_20130708\Calib_20130708_files\20130708.dat
  RG_S504              C:\Users\zzhang\Desktop\my HEC-RAS Model 1\My Don Valley Models\Calib_20130708\Calib_20130708_files\20130708.dat
  RG_S505              C:\Users\zzhang\Desktop\my HEC-RAS Model 1\My Don Valley Models\Calib_20130708\Calib_20130708_files\20130708.dat
  RG_S506              C:\Users\zzhang\Desktop\my HEC-RAS Model 1\My Don Valley Models\Calib_20130708\Calib_20130708_files\20130708.dat
  RG_S507              C:\Users\zzhang\Desktop\my HEC-RAS Model 1\My Don Valley Models\Calib_20130708\Calib_20130708_files\20130708.dat
  RG_S508              C:\Users\zzhang\Desktop\my HEC-RAS Model 1\My Don Valley Models\Calib_20130708\Calib_20130708_files\20130708.dat
  RG_S509              C:\Users\zzhang\Desktop\my HEC-RAS Model 1\My Don Valley Models\Calib_20130708\Calib_20130708_files\20130708.dat
  RG_S510              C:\Users\zzhang\Desktop\my HEC-RAS Model 1\My Don Valley Models\Calib_20130708\Calib_20130708_files\20130708.dat
  RG_S511              C:\Users\zzhang\Desktop\my HEC-RAS Model 1\My Don Valley Models\Calib_20130708\Calib_20130708_files\20130708.dat
  RG_S512              C:\Users\zzhang\Desktop\my HEC-RAS Model 1\My Don Valley Models\Calib_20130708\Calib_20130708_files\20130708.dat
  RG_S513              C:\Users\zzhang\Desktop\my HEC-RAS Model 1\My Don Valley Models\Calib_20130708\Calib_20130708_files\20130708.dat
  RG_S514              C:\Users\zzhang\Desktop\my HEC-RAS Model 1\My Don Valley Models\Calib_20130708\Calib_20130708_files\20130708.dat
  RG_S515              C:\Users\zzhang\Desktop\my HEC-RAS Model 1\My Don Valley Models\Calib_20130708\Calib_20130708_files\20130708.dat
  RG_S516              C:\Users\zzhang\Desktop\my HEC-RAS Model 1\My Don Valley Models\Calib_20130708\Calib_20130708_files\20130708.dat
  RG_S517              C:\Users\zzhang\Desktop\my HEC-RAS Model 1\My Don Valley Models\Calib_20130708\Calib_20130708_files\20130708.dat
  RG_S518              C:\Users\zzhang\Desktop\my HEC-RAS Model 1\My Don Valley Models\Calib_20130708\Calib_20130708_files\20130708.dat
  RG_S519              C:\Users\zzhang\Desktop\my HEC-RAS Model 1\My Don Valley Models\Calib_20130708\Calib_20130708_files\20130708.dat
  RG_S520              C:\Users\zzhang\Desktop\my HEC-RAS Model 1\My Don Valley Models\Calib_20130708\Calib_20130708_files\20130708.dat
  RG_S521              C:\Users\zzhang\Desktop\my HEC-RAS Model 1\My Don Valley Models\Calib_20130708\Calib_20130708_files\20130708.dat
  RG_S522              C:\Users\zzhang\Desktop\my HEC-RAS Model 1\My Don Valley Models\Calib_20130708\Calib_20130708_files\20130708.dat
  RG_S523              C:\Users\zzhang\Desktop\my HEC-RAS Model 1\My Don Valley Models\Calib_20130708\Calib_20130708_files\20130708.dat
  RG_S524              C:\Users\zzhang\Desktop\my HEC-RAS Model 1\My Don Valley Models\Calib_20130708\Calib_20130708_files\20130708.dat
  RG_S525              C:\Users\zzhang\Desktop\my HEC-RAS Model 1\My Don Valley Models\Calib_20130708\Calib_20130708_files\20130708.dat
  RG_S526              C:\Users\zzhang\Desktop\my HEC-RAS Model 1\My Don Valley Models\Calib_20130708\Calib_20130708_files\20130708.dat
  RG_S527              C:\Users\zzhang\Desktop\my HEC-RAS Model 1\My Don Valley Models\Calib_20130708\Calib_20130708_files\20130708.dat
  RG_S528              C:\Users\zzhang\Desktop\my HEC-RAS Model 1\My Don Valley Models\Calib_20130708\Calib_20130708_files\20130708.dat
  RG_S529              C:\Users\zzhang\Desktop\my HEC-RAS Model 1\My Don Valley Models\Calib_20130708\Calib_20130708_files\20130708.dat
  RG_S530              C:\Users\zzhang\Desktop\my HEC-RAS Model 1\My Don Valley Models\Calib_20130708\Calib_20130708_files\20130708.dat
  RG_S531              C:\Users\zzhang\Desktop\my HEC-RAS Model 1\My Don Valley Models\Calib_20130708\Calib_20130708_files\20130708.dat
  RG_S532              C:\Users\zzhang\Desktop\my HEC-RAS Model 1\My Don Valley Models\Calib_20130708\Calib_20130708_files\20130708.dat
  RG_S533              C:\Users\zzhang\Desktop\my HEC-RAS Model 1\My Don Valley Models\Calib_20130708\Calib_20130708_files\20130708.dat
  RG_S534              C:\Users\zzhang\Desktop\my HEC-RAS Model 1\My Don Valley Models\Calib_20130708\Calib_20130708_files\20130708.dat
  RG_S535              C:\Users\zzhang\Desktop\my HEC-RAS Model 1\My Don Valley Models\Calib_20130708\Calib_20130708_files\20130708.dat
  RG_S536              C:\Users\zzhang\Desktop\my HEC-RAS Model 1\My Don Valley Models\Calib_20130708\Calib_20130708_files\20130708.dat
  RG_S537              C:\Users\zzhang\Desktop\my HEC-RAS Model 1\My Don Valley Models\Calib_20130708\Calib_20130708_files\20130708.dat
  RG_S538              C:\Users\zzhang\Desktop\my HEC-RAS Model 1\My Don Valley Models\Calib_20130708\Calib_20130708_files\20130708.dat
  RG_S539              C:\Users\zzhang\Desktop\my HEC-RAS Model 1\My Don Valley Models\Calib_20130708\Calib_20130708_files\20130708.dat
  RG_S540              C:\Users\zzhang\Desktop\my HEC-RAS Model 1\My Don Valley Models\Calib_20130708\Calib_20130708_files\20130708.dat
  RG_S541              C:\Users\zzhang\Desktop\my HEC-RAS Model 1\My Don Valley Models\Calib_20130708\Calib_20130708_files\20130708.dat
  RG_S542              C:\Users\zzhang\Desktop\my HEC-RAS Model 1\My Don Valley Models\Calib_20130708\Calib_20130708_files\20130708.dat
  RG_S543              C:\Users\zzhang\Desktop\my HEC-RAS Model 1\My Don Valley Models\Calib_20130708\Calib_20130708_files\20130708.dat
  RG_S544              C:\Users\zzhang\Desktop\my HEC-RAS Model 1\My Don Valley Models\Calib_20130708\Calib_20130708_files\20130708.dat
  RG_S545              C:\Users\zzhang\Desktop\my HEC-RAS Model 1\My Don Valley Models\Calib_20130708\Calib_20130708_files\20130708.dat
  RG_S546              C:\Users\zzhang\Desktop\my HEC-RAS Model 1\My Don Valley Models\Calib_20130708\Calib_20130708_files\20130708.dat
  RG_S547              C:\Users\zzhang\Desktop\my HEC-RAS Model 1\My Don Valley Models\Calib_20130708\Calib_20130708_files\20130708.dat
  RG_S548              C:\Users\zzhang\Desktop\my HEC-RAS Model 1\My Don Valley Models\Calib_20130708\Calib_20130708_files\20130708.dat
  RG_S549              C:\Users\zzhang\Desktop\my HEC-RAS Model 1\My Don Valley Models\Calib_20130708\Calib_20130708_files\20130708.dat
  RG_S550              C:\Users\zzhang\Desktop\my HEC-RAS Model 1\My Don Valley Models\Calib_20130708\Calib_20130708_files\20130708.dat
  RG_S551              C:\Users\zzhang\Desktop\my HEC-RAS Model 1\My Don Valley Models\Calib_20130708\Calib_20130708_files\20130708.dat
  RG_S552              C:\Users\zzhang\Desktop\my HEC-RAS Model 1\My Don Valley Models\Calib_20130708\Calib_20130708_files\20130708.dat
  RG_S553              C:\Users\zzhang\Desktop\my HEC-RAS Model 1\My Don Valley Models\Calib_20130708\Calib_20130708_files\20130708.dat
  RG_S554              C:\Users\zzhang\Desktop\my HEC-RAS Model 1\My Don Valley Models\Calib_20130708\Calib_20130708_files\20130708.dat
  RG_S555              C:\Users\zzhang\Desktop\my HEC-RAS Model 1\My Don Valley Models\Calib_20130708\Calib_20130708_files\20130708.dat
  RG_S556              C:\Users\zzhang\Desktop\my HEC-RAS Model 1\My Don Valley Models\Calib_20130708\Calib_20130708_files\20130708.dat
  RG_S557              C:\Users\zzhang\Desktop\my HEC-RAS Model 1\My Don Valley Models\Calib_20130708\Calib_20130708_files\20130708.dat
[...]
  CJ26.19_HC              1.46   1.00  0.00  0.00  0.00  0.00  0.00  0.00  0.00  0.00
  CJ26.26                 1.00   0.00  0.00  0.00  1.00  0.00  0.00  0.00  0.00  0.00
  CJ26.26_HC              1.00   1.00  0.00  0.00  0.00  0.00  0.00  0.00  0.00  0.00
  CJ26.32                 1.00   0.00  0.00  0.00  0.42  0.58  0.00  0.00  0.09  0.00
  CJ26.32_HC              1.46   1.00  0.00  0.00  0.00  0.00  0.00  0.00  0.00  0.00
  CJ26.38                 1.00   0.00  0.00  0.00  1.00  0.00  0.00  0.00  0.12  0.00
  CJ26.38_HC              2.56   1.00  0.00  0.00  0.00  0.00  0.00  0.00  0.00  0.00
  CJ26.44                 1.00   0.01  0.00  0.00  0.99  0.00  0.00  0.00  0.00  0.00
  CJ26.44_HC              1.00   1.00  0.00  0.00  0.00  0.00  0.00  0.00  0.00  0.00
  CJ26.69                 1.00   0.00  0.03  0.00  0.96  0.01  0.00  0.00  0.87  0.00
  CJ26.69_HC              1.00   1.00  0.00  0.00  0.00  0.00  0.00  0.00  0.00  0.00
  CJ28.22                 1.00   0.06  0.00  0.00  0.94  0.00  0.00  0.00  0.00  0.00
  CJ28.22_HC              1.64   1.00  0.00  0.00  0.00  0.00  0.00  0.00  0.00  0.00
  CJ28.30                 1.00   0.01  0.01  0.00  0.98  0.00  0.00  0.00  0.97  0.00
  CJ28.30_HC              1.00   1.00  0.00  0.00  0.00  0.00  0.00  0.00  0.00  0.00
  CJ3.13                  1.00   0.03  0.00  0.00  0.96  0.01  0.00  0.00  0.79  0.00
  CJ3.13_HC               1.00   1.00  0.00  0.00  0.00  0.00  0.00  0.00  0.00  0.00
  CJ3.22                  1.00   0.03  0.00  0.00  0.80  0.17  0.00  0.00  0.66  0.00
  CJ3.22_HC               1.00   1.00  0.00  0.00  0.00  0.00  0.00  0.00  0.00  0.00
  CJ3.54                  1.00   0.03  0.00  0.00  0.95  0.02  0.00  0.00  0.67  0.00
  CJ3.54_HC               1.00   1.00  0.00  0.00  0.00  0.00  0.00  0.00  0.00  0.00
  CJ3.67                  1.00   0.10  0.01  0.00  0.88  0.02  0.00  0.00  0.89  0.00
  CJ3.67_HC               1.00   1.00  0.00  0.00  0.00  0.00  0.00  0.00  0.00  0.00
  CJ30.012_1              1.00   0.00  0.00  0.00  0.13  0.87  0.00  0.00  0.00  0.00
  CJ30.012_2              1.00   1.00  0.00  0.00  0.00  0.00  0.00  0.00  0.00  0.00
  CJ30.012_3              1.00   1.00  0.00  0.00  0.00  0.00  0.00  0.00  0.00  0.00
  CJ30.012_HC             3.21   1.00  0.00  0.00  0.00  0.00  0.00  0.00  0.00  0.00
  CJ30.058                1.12   0.00  0.00  0.00  0.13  0.87  0.00  0.00  0.00  0.00
  CJ30.058_HC             5.05   1.00  0.00  0.00  0.00  0.00  0.00  0.00  0.00  0.00
  CJ30.066                1.00   0.01  0.00  0.00  0.42  0.58  0.00  0.00  0.08  0.00
  CJ30.066_HC             1.00   1.00  0.00  0.00  0.00  0.00  0.00  0.00  0.00  0.00
  CJ30.082                1.00   0.86  0.03  0.00  0.00  0.00  0.11  0.00  0.00  0.00
  CJ30.082_2              1.00   0.00  0.00  0.00  0.99  0.00  0.00  0.00  0.75  0.00
  CJ30.082_3              1.00   0.85  0.03  0.00  0.00  0.00  0.11  0.00  0.00  0.00
  CJ30.082_HC             1.00   1.00  0.00  0.00  0.00  0.00  0.00  0.00  0.00  0.00
  CJ30.2                  1.00   0.01  0.00  0.00  0.99  0.00  0.00  0.00  0.78  0.00
  CJ30.2_HC               1.00   1.00  0.00  0.00  0.00  0.00  0.00  0.00  0.00  0.00
  CJ30.212                1.00   0.00  0.00  0.00  1.00  0.00  0.00  0.00  0.77  0.00
  CJ30.212_2              1.00   0.00  0.00  0.00  1.00  0.00  0.00  0.00  0.77  0.00
  CJ30.212_HC             1.00   1.00  0.00  0.00  0.00  0.00  0.00  0.00  0.00  0.00
  CJ30.223                1.00   1.00  0.00  0.00  0.00  0.00  0.00  0.00  0.00  0.00
  CJ30.223_2              1.00   0.00  0.00  0.00  0.82  0.18  0.00  0.00  0.83  0.00
  CJ30.223_HC             1.00   1.00  0.00  0.00  0.00  0.00  0.00  0.00  0.00  0.00
  CJ30.226                1.00   0.00  0.00  0.00  1.00  0.00  0.00  0.00  0.07  0.00
  CJ30.226_HC             1.00   1.00  0.00  0.00  0.00  0.00  0.00  0.00  0.00  0.00
  CJ30.238                1.00   0.00  0.00  0.00  0.98  0.01  0.00  0.00  0.77  0.00
  CJ30.238_HC             1.00   1.00  0.00  0.00  0.00  0.00  0.00  0.00  0.00  0.00
  CJ30.258                1.00   0.00  0.00  0.00  0.97  0.03  0.00  0.00  0.96  0.00
  CJ30.258_HC             1.00   1.00  0.00  0.00  0.00  0.00  0.00  0.00  0.00  0.00
  CJ30.264                1.00   0.00  0.00  0.00  0.85  0.15  0.00  0.00  0.22  0.00
  CJ30.264_HC             1.87   1.00  0.00  0.00  0.00  0.00  0.00  0.00  0.00  0.00
  CJ30.271                1.00   0.00  0.00  0.00  0.69  0.31  0.00  0.00  0.00  0.00
  CJ30.271_HC             1.28   1.00  0.00  0.00  0.00  0.00  0.00  0.00  0.00  0.00
  CJ30.28                 1.00   0.00  0.00  0.00  1.00  0.00  0.00  0.00  0.80  0.00
  CJ30.28_HC              1.00   1.00  0.00  0.00  0.00  0.00  0.00  0.00  0.00  0.00
  CJ31.08                 1.00   0.00  0.00  0.00  0.99  0.00  0.00  0.00  0.74  0.00
  CJ31.08_HC              1.93   1.00  0.00  0.00  0.00  0.00  0.00  0.00  0.00  0.00
  CJ31.19                 1.00   0.01  0.00  0.00  0.99  0.00  0.00  0.00  0.00  0.00
  CJ31.19_HC              1.00   1.00  0.00  0.00  0.00  0.00  0.00  0.00  0.00  0.00
  CJ31.39                 1.00   0.00  0.00  0.00  1.00  0.00  0.00  0.00  0.91  0.00
  CJ31.39_HC              1.00   1.00  0.00  0.00  0.00  0.00  0.00  0.00  0.00  0.00
  CJ32.04                 1.00   0.00  0.00  0.00  1.00  0.00  0.00  0.00  0.55  0.00
  CJ32.04_HC              1.00   1.00  0.00  0.00  0.00  0.00  0.00  0.00  0.00  0.00
  CJ32.23                 1.00   0.01  0.00  0.00  0.99  0.00  0.00  0.00  0.71  0.00
  CJ32.23_HC              1.00   1.00  0.00  0.00  0.00  0.00  0.00  0.00  0.00  0.00
  CJ32.28                 1.00   0.00  0.03  0.00  0.97  0.00  0.00  0.00  0.90  0.00
  CJ32.28_HC              1.00   1.00  0.00  0.00  0.00  0.00  0.00  0.00  0.00  0.00
  CJ34.21                 1.00   0.01  0.00  0.00  0.99  0.00  0.00  0.00  0.00  0.00
  CJ34.21_HC              1.00   1.00  0.00  0.00  0.00  0.00  0.00  0.00  0.00  0.00
  CJ35.16_1               1.00   0.01  0.00  0.00  0.99  0.00  0.00  0.00  0.00  0.00
  CJ35.16_2               1.00   0.99  0.00  0.00  0.00  0.00  0.00  0.01  0.00  0.00
  CJ35.16_3               1.00   0.92  0.00  0.00  0.00  0.00  0.00  0.08  0.00  0.00
  CJ35.16_HC              1.00   1.00  0.00  0.00  0.00  0.00  0.00  0.00  0.00  0.00
  CJ35.25                 1.07   0.13  0.00  0.00  0.87  0.00  0.00  0.00  0.00  0.00
  CJ35.25_HC              1.94   1.00  0.00  0.00  0.00  0.00  0.00  0.00  0.00  0.00
  CJ35.32_1               1.00   0.00  0.00  0.00  1.00  0.00  0.00  0.00  0.00  0.00
  CJ35.32_2               1.00   0.97  0.00  0.00  0.00  0.00  0.00  0.03  0.00  0.00
  CJ35.32_3               1.00   0.96  0.00  0.00  0.00  0.00  0.00  0.04  0.00  0.00
  CJ35.32_HC              1.00   1.00  0.00  0.00  0.00  0.00  0.00  0.00  0.00  0.00
  CJ37.1                  1.00   0.01  0.02  0.00  0.55  0.42  0.00  0.00  0.83  0.00
  CJ37.1_HC               1.00   1.00  0.00  0.00  0.00  0.00  0.00  0.00  0.00  0.00
  CJ37.22                 1.00   0.01  0.02  0.00  0.91  0.06  0.00  0.00  0.57  0.00
  CJ37.22_HC              1.00   1.00  0.00  0.00  0.00  0.00  0.00  0.00  0.00  0.00
  CJ38.06                 1.00   0.04  0.00  0.00  0.95  0.00  0.00  0.00  0.92  0.00
  CJ38.06_HC              1.00   1.00  0.00  0.00  0.00  0.00  0.00  0.00  0.00  0.00
  CJ39.11                 1.00   0.00  0.00  0.00  1.00  0.00  0.00  0.00  0.00  0.00
  CJ39.11_HC              1.00   1.00  0.00  0.00  0.00  0.00  0.00  0.00  0.00  0.00
  CJ4.07                  1.00   0.03  0.00  0.00  0.97  0.00  0.00  0.00  0.80  0.00
  CJ4.07_HC               1.00   1.00  0.00  0.00  0.00  0.00  0.00  0.00  0.00  0.00
  CJ4.19                  1.00   0.03  0.00  0.00  0.96  0.01  0.00  0.00  0.78  0.00
  CJ4.19_HC               1.00   1.00  0.00  0.00  0.00  0.00  0.00  0.00  0.00  0.00
  CJ4.30                  1.00   0.03  0.00  0.00  0.97  0.01  0.00  0.00  0.83  0.00
  CJ4.30_HC               1.00   1.00  0.00  0.00  0.00  0.00  0.00  0.00  0.00  0.00
  CJ4.36                  1.00   0.03  0.00  0.00  0.95  0.02  0.00  0.00  0.80  0.00
  CJ4.36_HC               1.00   1.00  0.00  0.00  0.00  0.00  0.00  0.00  0.00  0.00
  CJ4.42                  1.00   0.03  0.00  0.00  0.97  0.00  0.00  0.00  0.07  0.00
  CJ4.42_HC               1.00   1.00  0.00  0.00  0.00  0.00  0.00  0.00  0.00  0.00
  CJ4.48                  1.00   0.03  0.00  0.00  0.96  0.00  0.00  0.00  0.00  0.00
  CJ4.48_HC               1.00   0.98  0.00  0.00  0.00  0.00  0.00  0.02  0.00  0.00
  CJ41.1071               1.00   0.05  0.00  0.00  0.95  0.00  0.00  0.00  0.00  0.00
  CJ41.1071_HC            1.23   0.83  0.00  0.00  0.00  0.00  0.00  0.17  0.00  0.00
  CJ41.143_1              1.00   0.06  0.00  0.00  0.94  0.00  0.00  0.00  0.00  0.00
  CJ41.143_2              1.00   1.00  0.00  0.00  0.00  0.00  0.00  0.00  0.00  0.00
  CJ41.143_3              1.00   1.00  0.00  0.00  0.00  0.00  0.00  0.00  0.00  0.00
  CJ41.143_HC             1.00   1.00  0.00  0.00  0.00  0.00  0.00  0.00  0.00  0.00
  CJ41.160_1              1.00   0.03  0.00  0.00  0.89  0.00  0.00  0.08  0.01  0.00
  CJ41.160_2              1.00   0.61  0.01  0.00  0.35  0.00  0.00  0.02  0.58  0.00
  CJ41.160_3              1.00   0.95  0.00  0.00  0.00  0.00  0.00  0.05  0.00  0.00
  CJ41.160_HC             1.00   1.00  0.00  0.00  0.00  0.00  0.00  0.00  0.00  0.00
  CJ42.207                1.00   0.01  0.00  0.00  0.99  0.00  0.00  0.00  0.00  0.00
  CJ42.207_HC             1.00   1.00  0.00  0.00  0.00  0.00  0.00  0.00  0.00  0.00
  CJ42.221                1.00   1.00  0.00  0.00  0.00  0.00  0.00  0.00  0.00  0.00
  CJ42.221_2              1.00   0.01  0.00  0.00  0.99  0.00  0.00  0.00  0.81  0.00
  CJ42.221_HC             1.00   1.00  0.00  0.00  0.00  0.00  0.00  0.00  0.00  0.00
  CJ43.056                1.00   0.05  0.00  0.00  0.95  0.00  0.00  0.00  0.00  0.00
  CJ43.056_HC             1.00   1.00  0.00  0.00  0.00  0.00  0.00  0.00  0.00  0.00
  CJ43.064                1.00   0.05  0.00  0.00  0.95  0.00  0.00  0.00  0.00  0.00
  CJ43.064_HC             1.00   1.00  0.00  0.00  0.00  0.00  0.00  0.00  0.00  0.00
  CJ43.117                1.00   0.05  0.00  0.00  0.95  0.00  0.00  0.00  0.00  0.00
  CJ43.117_HC             1.00   1.00  0.00  0.00  0.00  0.00  0.00  0.00  0.00  0.00
  CJ43.1451               1.00   0.05  0.00  0.00  0.09  0.86  0.00  0.00  0.00  0.00
  CJ43.1451_2             1.00   0.86  0.00  0.00  0.00  0.00  0.00  0.14  0.00  0.00
  CJ43.1451_HC            1.00   1.00  0.00  0.00  0.00  0.00  0.00  0.00  0.00  0.00
  CJ44.03                 1.00   0.05  0.00  0.00  0.95  0.00  0.00  0.00  0.51  0.00
  CJ44.03_HC              4.19   0.96  0.00  0.00  0.00  0.00  0.00  0.04  0.00  0.00
  CJ44.12                 1.00   0.05  0.00  0.00  0.95  0.00  0.00  0.00  0.00  0.00
  CJ44.12_HC              1.70   0.95  0.00  0.00  0.00  0.00  0.00  0.05  0.00  0.00
  CJ44.19                 1.00   0.05  0.00  0.00  0.95  0.00  0.00  0.00  0.53  0.00
  CJ44.19_HC             28.20   0.89  0.00  0.00  0.03  0.06  0.00  0.01  0.02  0.00
  CJ49.17                 1.00   0.00  0.00  0.00  1.00  0.00  0.00  0.00  0.42  0.00
  CJ49.17_HC              1.00   1.00  0.00  0.00  0.00  0.00  0.00  0.00  0.00  0.00
  CJ49.26                 1.21   0.00  0.00  0.00  0.87  0.00  0.00  0.13  0.00  0.00
  CJ49.26_HC              1.00   1.00  0.00  0.00  0.00  0.00  0.00  0.00  0.00  0.00
  CJ5.153                 1.00   0.06  0.00  0.00  0.94  0.00  0.00  0.00  0.00  0.00
  CJ5.153_HC              1.00   1.00  0.00  0.00  0.00  0.00  0.00  0.00  0.00  0.00
  CJ5.33                  1.00   0.06  0.00  0.00  0.93  0.00  0.00  0.00  0.03  0.00
  CJ5.33_HC               1.00   1.00  0.00  0.00  0.00  0.00  0.00  0.00  0.00  0.00
  CJ5.41                  1.00   0.08  0.00  0.00  0.87  0.00  0.00  0.05  0.00  0.00
  CJ5.41_HC               1.00   1.00  0.00  0.00  0.00  0.00  0.00  0.00  0.00  0.00
  CJ50.08                 1.00   0.00  0.00  0.00  0.87  0.13  0.00  0.00  0.87  0.00
  CJ50.08_HC              1.00   1.00  0.00  0.00  0.00  0.00  0.00  0.00  0.00  0.00
  CJ50.13                 1.00   0.08  0.00  0.00  0.92  0.00  0.00  0.00  0.04  0.00
  CJ50.13_HC              1.00   1.00  0.00  0.00  0.00  0.00  0.00  0.00  0.00  0.00
  CJ50.18                 1.00   0.05  0.01  0.00  0.94  0.00  0.00  0.00  0.03  0.00
  CJ50.18_HC              1.00   1.00  0.00  0.00  0.00  0.00  0.00  0.00  0.00  0.00
  CJ50.25                 1.00   0.03  0.00  0.00  0.97  0.00  0.00  0.00  0.07  0.00
  CJ50.25_HC              1.00   1.00  0.00  0.00  0.00  0.00  0.00  0.00  0.00  0.00
  CJ6.11                  1.00   0.06  0.00  0.00  0.00  0.00  0.00  0.94  0.00  0.00
  CJ6.11_HC               2.52   0.89  0.00  0.00  0.00  0.00  0.00  0.11  0.00  0.00
  CJ6.29                  1.00   0.06  0.00  0.00  0.93  0.00  0.00  0.00  0.75  0.00
  CJ6.29_HC               1.00   1.00  0.00  0.00  0.00  0.00  0.00  0.00  0.00  0.00
  CJ6.33                  1.00   0.06  0.00  0.00  0.94  0.00  0.00  0.00  0.62  0.00
  CJ6.33_HC               1.00   1.00  0.00  0.00  0.00  0.00  0.00  0.00  0.00  0.00
  CJ7.109                 1.00   0.10  0.00  0.00  0.90  0.00  0.00  0.00  0.00  0.00
  CJ7.109_HC              1.00   1.00  0.00  0.00  0.00  0.00  0.00  0.00  0.00  0.00
  CJ7.12_1                1.06   0.10  0.00  0.00  0.90  0.00  0.00  0.00  0.00  0.00
  CJ7.12_2                1.00   1.00  0.00  0.00  0.00  0.00  0.00  0.00  0.00  0.00
  CJ7.12_3                1.00   1.00  0.00  0.00  0.00  0.00  0.00  0.00  0.00  0.00
  CJ7.12_4                1.00   1.00  0.00  0.00  0.00  0.00  0.00  0.00  0.00  0.00
  CJ7.12_HC               1.00   1.00  0.00  0.00  0.00  0.00  0.00  0.00  0.00  0.00
  CJ7.3                   1.00   0.12  0.00  0.00  0.88  0.00  0.00  0.00  0.00  0.00
  CJ7.3_HC                1.00   1.00  0.00  0.00  0.00  0.00  0.00  0.00  0.00  0.00
  CJ7.464                 1.00   0.07  0.03  0.00  0.90  0.00  0.00  0.00  0.10  0.00
  CJ7.464_HC              1.00   1.00  0.00  0.00  0.00  0.00  0.00  0.00  0.00  0.00
  CJ7.485                 1.00   0.06  0.00  0.00  0.94  0.00  0.00  0.00  0.61  0.00
  CJ7.485_HC              1.00   1.00  0.00  0.00  0.00  0.00  0.00  0.00  0.00  0.00
  CJ8.22                  1.00   0.10  0.00  0.00  0.88  0.02  0.00  0.00  0.75  0.00
  CJ8.22_HC               1.00   1.00  0.00  0.00  0.00  0.00  0.00  0.00  0.00  0.00
  CJ8.42                  1.00   0.10  0.01  0.00  0.89  0.00  0.00  0.00  0.02  0.00
  CJ8.42_HC               1.00   1.00  0.00  0.00  0.00  0.00  0.00  0.00  0.00  0.00
  CJ8.48                  1.00   0.12  0.00  0.00  0.88  0.00  0.00  0.00  0.76  0.00
  CJ8.48_HC               1.00   1.00  0.00  0.00  0.00  0.00  0.00  0.00  0.00  0.00
  CJ8.58                  1.00   0.12  0.00  0.00  0.88  0.00  0.00  0.00  0.00  0.00
  CJ8.58_HC               1.00   0.99  0.00  0.00  0.00  0.00  0.00  0.01  0.00  0.00
  CJ8.64                  1.00   0.10  0.00  0.00  0.90  0.00  0.00  0.00  0.20  0.00
  CJ8.64_HC               1.00   1.00  0.00  0.00  0.00  0.00  0.00  0.00  0.00  0.00
  CJ9.12                  1.00   0.10  0.00  0.00  0.90  0.00  0.00  0.00  0.00  0.00
  CJ9.12_HC               1.00   1.00  0.00  0.00  0.00  0.00  0.00  0.00  0.00  0.00
  
  
  *************************
  Conduit Surcharge Summary
  *************************
  
  ----------------------------------------------------------------------------
                                                           Hours        Hours 
                         --------- Hours Full --------   Above Full   Capacity
  Conduit                Both Ends  Upstream  Dnstream   Normal Flow   Limited
  ----------------------------------------------------------------------------
  C048                        0.01      1.10      0.01      1.18         0.01
  C050                        0.01      0.01      1.72      0.01         0.01
  C053                        1.00      1.06      1.05      0.42         0.40
  C057                        0.99      0.99      1.06      0.01         0.07
  C454_1                      1.09      1.09      1.26      0.01         0.01
  C454_4                      0.35      0.36      0.39      0.01         0.09
  C459                        0.01      0.01      1.30      0.01         0.01
  C461_1                      0.01      0.26      0.01      0.01         0.01
  CJ1.04                      0.01      0.01      0.01      5.72         0.01
  CJ1.15                      0.01      4.93      0.01     11.93         0.01
  CJ101.06                    0.01      0.60      0.01      1.25         0.01
  CJ11.052                    1.48      1.83      1.48      1.67         1.48
  CJ11.115                    0.01      0.01      0.01      1.98         0.01
  CJ15.062                    0.01      0.01      0.01      0.61         0.01
  CJ15.083                    0.01      0.01      0.01      2.66         0.01
  CJ16.10                     0.01      0.01      0.01      0.55         0.01
  CJ181.09                    0.01      0.01      0.01      3.02         0.01
  CJ25.10                     0.01      0.01      0.01      3.59         0.01
  CJ26.19                     0.01      0.74      0.01      0.01         0.01
  CJ26.19_2                   0.01      1.16      0.01      0.01         0.01
  CJ26.26                     0.01      0.01      0.01      2.60         0.01
  CJ26.32                     0.01      0.58      0.01      0.39         0.01
  CJ26.38                     0.01      0.54      0.01      0.39         0.01
  CJ26.44                     0.29      0.50      0.29      3.42         0.29
  CJ26.69                     0.01      0.62      0.01      0.49         0.01
  CJ28.22                     0.01      0.01      0.01      2.19         0.01
  CJ34.21                     0.01      0.01      0.01      8.43         0.01
  CJ35.16_1                   0.01      0.01      0.01      4.46         0.01
  CJ35.25                     0.01      0.01      0.01     10.57         0.01
  CJ35.32_1                   0.01      0.01      0.01      6.54         0.01
  CJ37.22                     0.01      3.60      0.01      3.62         0.01
  CJ38.06                     0.01      0.80      0.01      0.71         0.01
  CJ4.48                      0.17      2.35      0.17      3.45         0.17
  CJ41.1071                   4.27      4.47      4.27     16.13         4.27
  CJ41.143_1                  0.01      0.01      0.01      6.70         0.01
  CJ42.207                    0.01      0.01      0.01      1.23         0.01
  CJ43.056                    0.01      0.01      0.01      2.93         0.01
  CJ43.064                    0.01      0.01      0.01      1.19         0.01
  CJ43.117                    0.01      0.01      0.01      4.87         0.01
  CJ44.03                     1.86      2.44      1.86      2.24         1.86
  CJ44.12                     0.01      0.01      0.01      8.88         0.01
  CJ44.19                     3.30      3.32      3.62      1.55         0.04
  CJ5.41                      0.01      0.01      0.01     17.88         0.01
  CJ6.29                      0.01      0.66      0.01      0.01         0.01
  CJ6.33                      1.00      1.34      1.00      0.01         1.00
  CJ7.109                     0.01      0.01      0.01      2.13         0.01
  CJ7.3                       0.01      1.91      0.01      9.42         0.01
  CJ8.22                      0.01      1.48      0.01      1.31         0.01
  CJ8.42                      0.28      0.38      0.28      0.01         0.28
  CJ8.58                      0.78      0.83      0.80      0.02         0.72
  CJ8.64                      0.01      0.13      0.01      0.42         0.01
  CJ9.12                     21.67     22.95     21.67      5.55         0.01
  

  Analysis begun on:  Fri Mar 20 16:17:15 2020
  Analysis ended on:  Fri Mar 20 16:25:53 2020
  Total elapsed time: 00:08:38