
  EPA STORM WATER MANAGEMENT MODEL - VERSION 5.1 (Build 5.1.013)
  --------------------------------------------------------------

  EPASWMM-FEWS Test 
  
  WARNING 03: negative offset ignored for Link C1
  WARNING 03: negative offset ignored for Link C1
  WARNING 03: negative offset ignored for Link C2
  WARNING 03: negative offset ignored for Link C2
  WARNING 03: negative offset ignored for Link C4
  WARNING 03: negative offset ignored for Link C4
  WARNING 03: negative offset ignored for Link C3
  WARNING 03: negative offset ignored for Link C3
  
  *************
  Element Count
  *************
  Number of rain gages ...... 11
  Number of subcatchments ... 11
  Number of nodes ........... 5
  Number of links ........... 4
  Number of pollutants ...... 0
  Number of land uses ....... 0
  
  
  ****************
  Raingage Summary
  ****************
                                                      Data       Recording
  Name                 Data Source                    Type       Interval 
  ------------------------------------------------------------------------
  DON_3                RAINFALL.DAT                  
  DON_1                RAINFALL.DAT                  
  DON_2                RAINFALL.DAT                  
  DON_4                RAINFALL.DAT                  
  DON_5                RAINFALL.DAT                  
  DON_6                RAINFALL.DAT                  
  DON_7                RAINFALL.DAT                  
  DON_8                RAINFALL.DAT                  
  DON_9                RAINFALL.DAT                  
  DON_10               RAINFALL.DAT                  
  DON_11               RAINFALL.DAT                  
  
  
  ********************
  Subcatchment Summary
  ********************
  Name                       Area     Width   %Imperv    %Slope Rain Gage            Outlet              
  -----------------------------------------------------------------------------------------------------------
  DON_1                      4.00    400.00     50.00    0.5000 DON_1                J1                  
  DON_3                      4.00    400.00     25.00    0.5000 DON_3                J3                  
  DON_4                      4.00    400.00     50.00    0.5000 DON_2                J2                  
  DON_5                      4.00    400.00     50.00    0.5000 DON_5                J2                  
  DON_6                      4.00    400.00     50.00    0.5000 DON_6                J2                  
  DON_7                      4.00    400.00     50.00    0.5000 DON_7                J2                  
  DON_8                      4.00    400.00     50.00    0.5000 DON_8                J2                  
  DON_9                      4.00    400.00     50.00    0.5000 DON_9                J2                  
  DON_10                     4.00    400.00     50.00    0.5000 DON_10               J2                  
  DON_11                     4.00    400.00     50.00    0.5000 DON_11               J2                  
  DON_2                      4.00    400.00     50.00    0.5000 DON_2                J2                  
  
  
  ************
  Node Summary
  ************
                                           Invert      Max.    Ponded    External
  Name                 Type                 Elev.     Depth      Area    Inflow  
  -------------------------------------------------------------------------------
  J1                   JUNCTION             96.00      4.00       0.0
  J2                   JUNCTION             90.00      4.00       0.0
  J3                   JUNCTION             93.00      4.00       0.0
  J4                   JUNCTION             88.00      4.00       0.0
  Out1                 OUTFALL              85.00      1.50       0.0
  
  
  ************
  Link Summary
  ************
  Name             From Node        To Node          Type            Length    %Slope Roughness
  ---------------------------------------------------------------------------------------------
  C1               J1               J2               CONDUIT          400.0    1.5002    0.0100
  C2               J2               J4               CONDUIT          400.0    0.5000    0.0100
  C4               J4               Out1             CONDUIT          400.0    0.7500    0.0100
  C3               J3               J4               CONDUIT          400.0    1.2501    0.0100
  
  
  *********************
  Cross Section Summary
  *********************
                                        Full     Full     Hyd.     Max.   No. of     Full
  Conduit          Shape               Depth     Area     Rad.    Width  Barrels     Flow
  ---------------------------------------------------------------------------------------
  C1               CIRCULAR             1.00     0.79     0.25     1.00        1     5.67
  C2               CIRCULAR             1.00     0.79     0.25     1.00        1     3.28
  C4               CIRCULAR             1.50     1.77     0.38     1.50        1    11.83
  C3               CIRCULAR             1.00     0.79     0.25     1.00        1     5.18
  
  
  
  *********************
  Rainfall File Summary
  *********************
  Station    First        Last         Recording   Periods    Periods    Periods
  ID         Date         Date         Frequency  w/Precip    Missing    Malfunc.
  -------------------------------------------------------------------------------
  DON_3      03/19/2020   03/20/2020      60 min        25          0          0
  DON_1      03/19/2020   03/20/2020      60 min        25          0          0
  DON_2      03/19/2020   03/20/2020      60 min        25          0          0
  DON_4      03/19/2020   03/20/2020      60 min        25          0          0
  DON_5      03/19/2020   03/20/2020      60 min        25          0          0
  DON_6      03/19/2020   03/20/2020      60 min        25          0          0
  DON_7      03/19/2020   03/20/2020      60 min        25          0          0
  DON_8      03/19/2020   03/20/2020      60 min        25          0          0
  DON_9      03/19/2020   03/20/2020      60 min        25          0          0
  DON_10     03/19/2020   03/20/2020      60 min        25          0          0
  DON_11     03/19/2020   03/20/2020      60 min        25          0          0

  
  *********************************************************
  NOTE: The summary statistics displayed in this report are
  based on results found at every computational time step,  
  not just on results from each reporting time step.
  *********************************************************
  
  ****************
  Analysis Options
  ****************
  Flow Units ............... CFS
  Process Models:
    Rainfall/Runoff ........ YES
    RDII ................... NO
    Snowmelt ............... NO
    Groundwater ............ NO
    Flow Routing ........... YES
    Ponding Allowed ........ YES
    Water Quality .......... NO
  Infiltration Method ...... MODIFIED_GREEN_AMPT
  Flow Routing Method ...... DYNWAVE
  Surcharge Method ......... EXTRAN
  Starting Date ............ 03/18/2020 20:00:00
  Ending Date .............. 03/19/2020 20:00:00
  Antecedent Dry Days ...... 0.0
  Report Time Step ......... 00:15:00
  Wet Time Step ............ 00:01:00
  Dry Time Step ............ 01:00:00
  Routing Time Step ........ 1.00 sec
  Variable Time Step ....... YES
  Maximum Trials ........... 8
  Number of Threads ........ 1
  Head Tolerance ........... 0.001500 ft
  
  
  *********************
  Control Actions Taken
  *********************

  
  **************************        Volume         Depth
  Runoff Quantity Continuity     acre-feet        inches
  **************************     ---------       -------
  Total Precipitation ......         4.114         1.122
  Evaporation Loss .........         0.000         0.000
  Infiltration Loss ........         2.151         0.587
  Surface Runoff ...........         1.860         0.507
  Final Storage ............         0.104         0.028
  Continuity Error (%) .....        -0.021
  
  
  **************************        Volume        Volume
  Flow Routing Continuity        acre-feet      10^6 gal
  **************************     ---------     ---------
  Dry Weather Inflow .......         0.000         0.000
  Wet Weather Inflow .......         1.859         0.606
  Groundwater Inflow .......         0.000         0.000
  RDII Inflow ..............         0.000         0.000
  External Inflow ..........         0.000         0.000
  External Outflow .........         1.853         0.604
  Flooding Loss ............         0.000         0.000
  Evaporation Loss .........         0.000         0.000
  Exfiltration Loss ........         0.000         0.000
  Initial Stored Volume ....         0.000         0.000
  Final Stored Volume ......         0.008         0.003
  Continuity Error (%) .....        -0.080
  
  
  ***************************
  Time-Step Critical Elements
  ***************************
  None
  
  
  ********************************
  Highest Flow Instability Indexes
  ********************************
  All links are stable.
  
  
  *************************
  Routing Time Step Summary
  *************************
  Minimum Time Step           :     0.90 sec
  Average Time Step           :     1.00 sec
  Maximum Time Step           :     1.00 sec
  Percent in Steady State     :     0.00
  Average Iterations per Step :     2.00
  Percent Not Converging      :     0.00
  
  
  ***************************
  Subcatchment Runoff Summary
  ***************************
  
  ------------------------------------------------------------------------------------------------------------------------------
                            Total      Total      Total      Total     Imperv       Perv      Total       Total     Peak  Runoff
                           Precip      Runon       Evap      Infil     Runoff     Runoff     Runoff      Runoff   Runoff   Coeff
  Subcatchment                 in         in         in         in         in         in         in    10^6 gal      CFS
  ------------------------------------------------------------------------------------------------------------------------------
  DON_1                      1.12       0.00       0.00       0.56       0.53       0.00       0.53        0.06     0.12   0.474
  DON_3                      1.12       0.00       0.00       0.84       0.27       0.00       0.27        0.03     0.06   0.238
  DON_4                      1.12       0.00       0.00       0.56       0.53       0.00       0.53        0.06     0.12   0.474
  DON_5                      1.12       0.00       0.00       0.56       0.53       0.00       0.53        0.06     0.12   0.474
  DON_6                      1.12       0.00       0.00       0.56       0.53       0.00       0.53        0.06     0.12   0.474
  DON_7                      1.12       0.00       0.00       0.56       0.53       0.00       0.53        0.06     0.12   0.474
  DON_8                      1.12       0.00       0.00       0.56       0.53       0.00       0.53        0.06     0.12   0.474
  DON_9                      1.12       0.00       0.00       0.56       0.53       0.00       0.53        0.06     0.12   0.474
  DON_10                     1.12       0.00       0.00       0.56       0.53       0.00       0.53        0.06     0.12   0.474
  DON_11                     1.12       0.00       0.00       0.56       0.53       0.00       0.53        0.06     0.12   0.474
  DON_2                      1.12       0.00       0.00       0.56       0.53       0.00       0.53        0.06     0.12   0.474
  
  
  ******************
  Node Depth Summary
  ******************
  
  ---------------------------------------------------------------------------------
                                 Average  Maximum  Maximum  Time of Max    Reported
                                   Depth    Depth      HGL   Occurrence   Max Depth
  Node                 Type         Feet     Feet     Feet  days hr:min        Feet
  ---------------------------------------------------------------------------------
  J1                   JUNCTION     0.08     0.10    96.10     0  12:59        0.10
  J2                   JUNCTION     0.33     0.43    90.43     0  12:58        0.43
  J3                   JUNCTION     0.06     0.08    93.08     0  10:26        0.08
  J4                   JUNCTION     0.25     0.33    88.33     0  13:12        0.33
  Out1                 OUTFALL      0.25     0.33    85.33     0  13:13        0.33
  
  
  *******************
  Node Inflow Summary
  *******************
  
  -------------------------------------------------------------------------------------------------
                                  Maximum  Maximum                  Lateral       Total        Flow
                                  Lateral    Total  Time of Max      Inflow      Inflow     Balance
                                   Inflow   Inflow   Occurrence      Volume      Volume       Error
  Node                 Type           CFS      CFS  days hr:min    10^6 gal    10^6 gal     Percent
  -------------------------------------------------------------------------------------------------
  J1                   JUNCTION      0.12     0.12     0  13:31      0.0577      0.0577       0.132
  J2                   JUNCTION      1.07     1.19     0  13:30       0.519       0.577       0.159
  J3                   JUNCTION      0.06     0.06     0  10:55       0.029       0.029       0.162
  J4                   JUNCTION      0.00     1.25     0  13:13           0       0.605       0.180
  Out1                 OUTFALL       0.00     1.25     0  13:13           0       0.604       0.000
  
  
  **********************
  Node Surcharge Summary
  **********************
  
  No nodes were surcharged.
  
  
  *********************
  Node Flooding Summary
  *********************
  
  No nodes were flooded.
  
  
  ***********************
  Outfall Loading Summary
  ***********************
  
  -----------------------------------------------------------
                         Flow       Avg       Max       Total
                         Freq      Flow      Flow      Volume
  Outfall Node           Pcnt       CFS       CFS    10^6 gal
  -----------------------------------------------------------
  Out1                  78.73      1.19      1.25       0.604
  -----------------------------------------------------------
  System                78.73      1.19      1.25       0.604
  
  
  ********************
  Link Flow Summary
  ********************
  
  -----------------------------------------------------------------------------
                                 Maximum  Time of Max   Maximum    Max/    Max/
                                  |Flow|   Occurrence   |Veloc|    Full    Full
  Link                 Type          CFS  days hr:min    ft/sec    Flow   Depth
  -----------------------------------------------------------------------------
  C1                   CONDUIT      0.12     0  12:48      0.71    0.02    0.27
  C2                   CONDUIT      1.19     0  13:13      4.35    0.36    0.38
  C4                   CONDUIT      1.25     0  13:13      4.35    0.11    0.22
  C3                   CONDUIT      0.06     0  10:36      0.79    0.01    0.20
  
  
  ***************************
  Flow Classification Summary
  ***************************
  
  -------------------------------------------------------------------------------------
                      Adjusted    ---------- Fraction of Time in Flow Class ---------- 
                       /Actual         Up    Down  Sub   Sup   Up    Down  Norm  Inlet 
  Conduit               Length    Dry  Dry   Dry   Crit  Crit  Crit  Crit  Ltd   Ctrl  
  -------------------------------------------------------------------------------------
  C1                      1.00   0.21  0.00  0.00  0.79  0.00  0.00  0.00  0.79  0.00
  C2                      1.00   0.21  0.00  0.00  0.00  0.79  0.00  0.00  0.00  0.00
  C4                      1.00   0.21  0.00  0.00  0.00  0.79  0.00  0.00  0.00  0.00
  C3                      1.00   0.21  0.00  0.00  0.79  0.00  0.00  0.00  0.79  0.00
  
  
  *************************
  Conduit Surcharge Summary
  *************************
  
  No conduits were surcharged.
  
  
  ********************
  Subcatchment Results
  ********************
  
  <<< Subcatchment DON_1 >>>
  ---------------------------------------------------
  Date        Time        Precip.    Losses    Runoff
                            in/hr     in/hr       CFS
  ---------------------------------------------------
   03/18/2020 20:15:00      0.000     0.000    0.0000
   03/18/2020 20:30:00      0.000     0.000    0.0000
   03/18/2020 20:45:00      0.000     0.000    0.0000
   03/18/2020 21:00:00      0.000     0.000    0.0000
   03/18/2020 21:15:00      0.000     0.000    0.0000
   03/18/2020 21:30:00      0.000     0.000    0.0000
   03/18/2020 21:45:00      0.000     0.000    0.0000
   03/18/2020 22:00:00      0.000     0.000    0.0000
   03/18/2020 22:15:00      0.000     0.000    0.0000
   03/18/2020 22:30:00      0.000     0.000    0.0000
   03/18/2020 22:45:00      0.000     0.000    0.0000
   03/18/2020 23:00:00      0.000     0.000    0.0000
   03/18/2020 23:15:00      0.000     0.000    0.0000
   03/18/2020 23:30:00      0.000     0.000    0.0000
   03/18/2020 23:45:00      0.000     0.000    0.0000
   03/19/2020 00:00:00      0.000     0.000    0.0000
   03/19/2020 00:15:00      0.000     0.000    0.0000
   03/19/2020 00:30:00      0.000     0.000    0.0000
   03/19/2020 00:45:00      0.000     0.000    0.0000
   03/19/2020 01:00:00      0.059     0.030    0.0000
   03/19/2020 01:15:00      0.059     0.030    0.0112
   03/19/2020 01:30:00      0.059     0.030    0.0221
   03/19/2020 01:45:00      0.059     0.030    0.0270
   03/19/2020 02:00:00      0.059     0.030    0.0461
   03/19/2020 02:15:00      0.059     0.030    0.0854
   03/19/2020 02:30:00      0.059     0.030    0.1065
   03/19/2020 02:45:00      0.059     0.030    0.1147
   03/19/2020 03:00:00      0.059     0.030    0.1176
   03/19/2020 03:15:00      0.059     0.030    0.1186
   03/19/2020 03:30:00      0.059     0.030    0.1189
   03/19/2020 03:45:00      0.059     0.030    0.1190
   03/19/2020 04:00:00      0.059     0.030    0.1191
   03/19/2020 04:15:00      0.059     0.030    0.1191
   03/19/2020 04:30:00      0.059     0.030    0.1191
   03/19/2020 04:45:00      0.059     0.030    0.1191
   03/19/2020 05:00:00      0.059     0.030    0.1191
   03/19/2020 05:15:00      0.059     0.030    0.1191
   03/19/2020 05:30:00      0.059     0.030    0.1191
   03/19/2020 05:45:00      0.059     0.030    0.1191
   03/19/2020 06:00:00      0.059     0.030    0.1191
   03/19/2020 06:15:00      0.059     0.030    0.1191
   03/19/2020 06:30:00      0.059     0.030    0.1191
   03/19/2020 06:45:00      0.059     0.030    0.1191
   03/19/2020 07:00:00      0.059     0.030    0.1191
   03/19/2020 07:15:00      0.059     0.030    0.1191
   03/19/2020 07:30:00      0.059     0.030    0.1191
   03/19/2020 07:45:00      0.059     0.030    0.1191
   03/19/2020 08:00:00      0.059     0.030    0.1191
   03/19/2020 08:15:00      0.059     0.030    0.1191
   03/19/2020 08:30:00      0.059     0.030    0.1191
   03/19/2020 08:45:00      0.059     0.030    0.1191
   03/19/2020 09:00:00      0.059     0.030    0.1191
   03/19/2020 09:15:00      0.059     0.030    0.1191
   03/19/2020 09:30:00      0.059     0.030    0.1191
   03/19/2020 09:45:00      0.059     0.030    0.1191
   03/19/2020 10:00:00      0.059     0.030    0.1191
   03/19/2020 10:15:00      0.059     0.030    0.1191
   03/19/2020 10:30:00      0.059     0.030    0.1191
   03/19/2020 10:45:00      0.059     0.030    0.1191
   03/19/2020 11:00:00      0.059     0.030    0.1191
   03/19/2020 11:15:00      0.059     0.030    0.1191
   03/19/2020 11:30:00      0.059     0.030    0.1191
   03/19/2020 11:45:00      0.059     0.030    0.1191
   03/19/2020 12:00:00      0.059     0.030    0.1191
   03/19/2020 12:15:00      0.059     0.030    0.1191
   03/19/2020 12:30:00      0.059     0.030    0.1191
   03/19/2020 12:45:00      0.059     0.030    0.1191
   03/19/2020 13:00:00      0.059     0.030    0.1191
   03/19/2020 13:15:00      0.059     0.030    0.1191
   03/19/2020 13:30:00      0.059     0.030    0.1191
   03/19/2020 13:45:00      0.059     0.030    0.1191
   03/19/2020 14:00:00      0.059     0.030    0.1191
   03/19/2020 14:15:00      0.059     0.030    0.1191
   03/19/2020 14:30:00      0.059     0.030    0.1191
   03/19/2020 14:45:00      0.059     0.030    0.1191
   03/19/2020 15:00:00      0.059     0.030    0.1191
   03/19/2020 15:15:00      0.059     0.030    0.1191
   03/19/2020 15:30:00      0.059     0.030    0.1191
   03/19/2020 15:45:00      0.059     0.030    0.1191
   03/19/2020 16:00:00      0.059     0.030    0.1191
   03/19/2020 16:15:00      0.059     0.030    0.1191
   03/19/2020 16:30:00      0.059     0.030    0.1191
   03/19/2020 16:45:00      0.059     0.030    0.1191
   03/19/2020 17:00:00      0.059     0.030    0.1191
   03/19/2020 17:15:00      0.059     0.030    0.1191
   03/19/2020 17:30:00      0.059     0.030    0.1191
   03/19/2020 17:45:00      0.059     0.030    0.1191
   03/19/2020 18:00:00      0.059     0.030    0.1191
   03/19/2020 18:15:00      0.059     0.030    0.1191
   03/19/2020 18:30:00      0.059     0.030    0.1191
   03/19/2020 18:45:00      0.059     0.030    0.1191
   03/19/2020 19:00:00      0.059     0.030    0.1191
   03/19/2020 19:15:00      0.059     0.030    0.1191
   03/19/2020 19:30:00      0.059     0.030    0.1191
   03/19/2020 19:45:00      0.059     0.030    0.1191
   03/19/2020 20:00:00      0.059     0.030    0.1191
  
  
  <<< Subcatchment DON_3 >>>
  ---------------------------------------------------
  Date        Time        Precip.    Losses    Runoff
                            in/hr     in/hr       CFS
  ---------------------------------------------------
   03/18/2020 20:15:00      0.000     0.000    0.0000
   03/18/2020 20:30:00      0.000     0.000    0.0000
   03/18/2020 20:45:00      0.000     0.000    0.0000
   03/18/2020 21:00:00      0.000     0.000    0.0000
   03/18/2020 21:15:00      0.000     0.000    0.0000
   03/18/2020 21:30:00      0.000     0.000    0.0000
   03/18/2020 21:45:00      0.000     0.000    0.0000
   03/18/2020 22:00:00      0.000     0.000    0.0000
   03/18/2020 22:15:00      0.000     0.000    0.0000
   03/18/2020 22:30:00      0.000     0.000    0.0000
   03/18/2020 22:45:00      0.000     0.000    0.0000
   03/18/2020 23:00:00      0.000     0.000    0.0000
   03/18/2020 23:15:00      0.000     0.000    0.0000
   03/18/2020 23:30:00      0.000     0.000    0.0000
   03/18/2020 23:45:00      0.000     0.000    0.0000
   03/19/2020 00:00:00      0.000     0.000    0.0000
   03/19/2020 00:15:00      0.000     0.000    0.0000
   03/19/2020 00:30:00      0.000     0.000    0.0000
   03/19/2020 00:45:00      0.000     0.000    0.0000
   03/19/2020 01:00:00      0.059     0.044    0.0000
   03/19/2020 01:15:00      0.059     0.044    0.0088
   03/19/2020 01:30:00      0.059     0.044    0.0135
   03/19/2020 01:45:00      0.059     0.044    0.0146
   03/19/2020 02:00:00      0.059     0.044    0.0302
   03/19/2020 02:15:00      0.059     0.044    0.0521
   03/19/2020 02:30:00      0.059     0.044    0.0581
   03/19/2020 02:45:00      0.059     0.044    0.0593
   03/19/2020 03:00:00      0.059     0.044    0.0595
   03/19/2020 03:15:00      0.059     0.044    0.0595
   03/19/2020 03:30:00      0.059     0.044    0.0595
   03/19/2020 03:45:00      0.059     0.044    0.0595
   03/19/2020 04:00:00      0.059     0.044    0.0595
   03/19/2020 04:15:00      0.059     0.044    0.0595
   03/19/2020 04:30:00      0.059     0.044    0.0595
   03/19/2020 04:45:00      0.059     0.044    0.0595
   03/19/2020 05:00:00      0.059     0.044    0.0595
   03/19/2020 05:15:00      0.059     0.044    0.0595
   03/19/2020 05:30:00      0.059     0.044    0.0595
   03/19/2020 05:45:00      0.059     0.044    0.0595
   03/19/2020 06:00:00      0.059     0.044    0.0595
   03/19/2020 06:15:00      0.059     0.044    0.0595
   03/19/2020 06:30:00      0.059     0.044    0.0595
   03/19/2020 06:45:00      0.059     0.044    0.0595
   03/19/2020 07:00:00      0.059     0.044    0.0595
   03/19/2020 07:15:00      0.059     0.044    0.0595
   03/19/2020 07:30:00      0.059     0.044    0.0595
   03/19/2020 07:45:00      0.059     0.044    0.0595
   03/19/2020 08:00:00      0.059     0.044    0.0595
   03/19/2020 08:15:00      0.059     0.044    0.0595
   03/19/2020 08:30:00      0.059     0.044    0.0595
   03/19/2020 08:45:00      0.059     0.044    0.0595
   03/19/2020 09:00:00      0.059     0.044    0.0595
   03/19/2020 09:15:00      0.059     0.044    0.0595
   03/19/2020 09:30:00      0.059     0.044    0.0595
   03/19/2020 09:45:00      0.059     0.044    0.0595
   03/19/2020 10:00:00      0.059     0.044    0.0595
   03/19/2020 10:15:00      0.059     0.044    0.0595
   03/19/2020 10:30:00      0.059     0.044    0.0595
   03/19/2020 10:45:00      0.059     0.044    0.0595
   03/19/2020 11:00:00      0.059     0.044    0.0595
   03/19/2020 11:15:00      0.059     0.044    0.0595
   03/19/2020 11:30:00      0.059     0.044    0.0595
   03/19/2020 11:45:00      0.059     0.044    0.0595
   03/19/2020 12:00:00      0.059     0.044    0.0595
   03/19/2020 12:15:00      0.059     0.044    0.0595
   03/19/2020 12:30:00      0.059     0.044    0.0595
   03/19/2020 12:45:00      0.059     0.044    0.0595
   03/19/2020 13:00:00      0.059     0.044    0.0595
   03/19/2020 13:15:00      0.059     0.044    0.0595
   03/19/2020 13:30:00      0.059     0.044    0.0595
   03/19/2020 13:45:00      0.059     0.044    0.0595
   03/19/2020 14:00:00      0.059     0.044    0.0595
   03/19/2020 14:15:00      0.059     0.044    0.0595
   03/19/2020 14:30:00      0.059     0.044    0.0595
   03/19/2020 14:45:00      0.059     0.044    0.0595
   03/19/2020 15:00:00      0.059     0.044    0.0595
   03/19/2020 15:15:00      0.059     0.044    0.0595
   03/19/2020 15:30:00      0.059     0.044    0.0595
   03/19/2020 15:45:00      0.059     0.044    0.0595
   03/19/2020 16:00:00      0.059     0.044    0.0595
   03/19/2020 16:15:00      0.059     0.044    0.0595
   03/19/2020 16:30:00      0.059     0.044    0.0595
   03/19/2020 16:45:00      0.059     0.044    0.0595
   03/19/2020 17:00:00      0.059     0.044    0.0595
   03/19/2020 17:15:00      0.059     0.044    0.0595
   03/19/2020 17:30:00      0.059     0.044    0.0595
   03/19/2020 17:45:00      0.059     0.044    0.0595
   03/19/2020 18:00:00      0.059     0.044    0.0595
   03/19/2020 18:15:00      0.059     0.044    0.0595
   03/19/2020 18:30:00      0.059     0.044    0.0595
   03/19/2020 18:45:00      0.059     0.044    0.0595
   03/19/2020 19:00:00      0.059     0.044    0.0595
   03/19/2020 19:15:00      0.059     0.044    0.0595
   03/19/2020 19:30:00      0.059     0.044    0.0595
   03/19/2020 19:45:00      0.059     0.044    0.0595
   03/19/2020 20:00:00      0.059     0.044    0.0595
  
  
  <<< Subcatchment DON_4 >>>
  ---------------------------------------------------
  Date        Time        Precip.    Losses    Runoff
                            in/hr     in/hr       CFS
  ---------------------------------------------------
   03/18/2020 20:15:00      0.000     0.000    0.0000
   03/18/2020 20:30:00      0.000     0.000    0.0000
   03/18/2020 20:45:00      0.000     0.000    0.0000
   03/18/2020 21:00:00      0.000     0.000    0.0000
   03/18/2020 21:15:00      0.000     0.000    0.0000
   03/18/2020 21:30:00      0.000     0.000    0.0000
   03/18/2020 21:45:00      0.000     0.000    0.0000
   03/18/2020 22:00:00      0.000     0.000    0.0000
   03/18/2020 22:15:00      0.000     0.000    0.0000
   03/18/2020 22:30:00      0.000     0.000    0.0000
   03/18/2020 22:45:00      0.000     0.000    0.0000
   03/18/2020 23:00:00      0.000     0.000    0.0000
   03/18/2020 23:15:00      0.000     0.000    0.0000
   03/18/2020 23:30:00      0.000     0.000    0.0000
   03/18/2020 23:45:00      0.000     0.000    0.0000
   03/19/2020 00:00:00      0.000     0.000    0.0000
   03/19/2020 00:15:00      0.000     0.000    0.0000
   03/19/2020 00:30:00      0.000     0.000    0.0000
   03/19/2020 00:45:00      0.000     0.000    0.0000
   03/19/2020 01:00:00      0.059     0.030    0.0000
   03/19/2020 01:15:00      0.059     0.030    0.0112
   03/19/2020 01:30:00      0.059     0.030    0.0221
   03/19/2020 01:45:00      0.059     0.030    0.0270
   03/19/2020 02:00:00      0.059     0.030    0.0461
   03/19/2020 02:15:00      0.059     0.030    0.0854
   03/19/2020 02:30:00      0.059     0.030    0.1065
   03/19/2020 02:45:00      0.059     0.030    0.1147
   03/19/2020 03:00:00      0.059     0.030    0.1176
   03/19/2020 03:15:00      0.059     0.030    0.1186
   03/19/2020 03:30:00      0.059     0.030    0.1189
   03/19/2020 03:45:00      0.059     0.030    0.1190
   03/19/2020 04:00:00      0.059     0.030    0.1191
   03/19/2020 04:15:00      0.059     0.030    0.1191
   03/19/2020 04:30:00      0.059     0.030    0.1191
   03/19/2020 04:45:00      0.059     0.030    0.1191
   03/19/2020 05:00:00      0.059     0.030    0.1191
   03/19/2020 05:15:00      0.059     0.030    0.1191
   03/19/2020 05:30:00      0.059     0.030    0.1191
   03/19/2020 05:45:00      0.059     0.030    0.1191
   03/19/2020 06:00:00      0.059     0.030    0.1191
   03/19/2020 06:15:00      0.059     0.030    0.1191
   03/19/2020 06:30:00      0.059     0.030    0.1191
   03/19/2020 06:45:00      0.059     0.030    0.1191
   03/19/2020 07:00:00      0.059     0.030    0.1191
   03/19/2020 07:15:00      0.059     0.030    0.1191
   03/19/2020 07:30:00      0.059     0.030    0.1191
   03/19/2020 07:45:00      0.059     0.030    0.1191
   03/19/2020 08:00:00      0.059     0.030    0.1191
   03/19/2020 08:15:00      0.059     0.030    0.1191
   03/19/2020 08:30:00      0.059     0.030    0.1191
   03/19/2020 08:45:00      0.059     0.030    0.1191
   03/19/2020 09:00:00      0.059     0.030    0.1191
   03/19/2020 09:15:00      0.059     0.030    0.1191
   03/19/2020 09:30:00      0.059     0.030    0.1191
   03/19/2020 09:45:00      0.059     0.030    0.1191
   03/19/2020 10:00:00      0.059     0.030    0.1191
   03/19/2020 10:15:00      0.059     0.030    0.1191
   03/19/2020 10:30:00      0.059     0.030    0.1191
   03/19/2020 10:45:00      0.059     0.030    0.1191
   03/19/2020 11:00:00      0.059     0.030    0.1191
   03/19/2020 11:15:00      0.059     0.030    0.1191
   03/19/2020 11:30:00      0.059     0.030    0.1191
   03/19/2020 11:45:00      0.059     0.030    0.1191
   03/19/2020 12:00:00      0.059     0.030    0.1191
   03/19/2020 12:15:00      0.059     0.030    0.1191
   03/19/2020 12:30:00      0.059     0.030    0.1191
   03/19/2020 12:45:00      0.059     0.030    0.1191
   03/19/2020 13:00:00      0.059     0.030    0.1191
   03/19/2020 13:15:00      0.059     0.030    0.1191
   03/19/2020 13:30:00      0.059     0.030    0.1191
   03/19/2020 13:45:00      0.059     0.030    0.1191
   03/19/2020 14:00:00      0.059     0.030    0.1191
   03/19/2020 14:15:00      0.059     0.030    0.1191
   03/19/2020 14:30:00      0.059     0.030    0.1191
   03/19/2020 14:45:00      0.059     0.030    0.1191
   03/19/2020 15:00:00      0.059     0.030    0.1191
   03/19/2020 15:15:00      0.059     0.030    0.1191
   03/19/2020 15:30:00      0.059     0.030    0.1191
   03/19/2020 15:45:00      0.059     0.030    0.1191
   03/19/2020 16:00:00      0.059     0.030    0.1191
   03/19/2020 16:15:00      0.059     0.030    0.1191
   03/19/2020 16:30:00      0.059     0.030    0.1191
   03/19/2020 16:45:00      0.059     0.030    0.1191
   03/19/2020 17:00:00      0.059     0.030    0.1191
   03/19/2020 17:15:00      0.059     0.030    0.1191
   03/19/2020 17:30:00      0.059     0.030    0.1191
   03/19/2020 17:45:00      0.059     0.030    0.1191
   03/19/2020 18:00:00      0.059     0.030    0.1191
   03/19/2020 18:15:00      0.059     0.030    0.1191
   03/19/2020 18:30:00      0.059     0.030    0.1191
   03/19/2020 18:45:00      0.059     0.030    0.1191
   03/19/2020 19:00:00      0.059     0.030    0.1191
   03/19/2020 19:15:00      0.059     0.030    0.1191
   03/19/2020 19:30:00      0.059     0.030    0.1191
   03/19/2020 19:45:00      0.059     0.030    0.1191
   03/19/2020 20:00:00      0.059     0.030    0.1191
  
  
  <<< Subcatchment DON_5 >>>
  ---------------------------------------------------
  Date        Time        Precip.    Losses    Runoff
                            in/hr     in/hr       CFS
  ---------------------------------------------------
   03/18/2020 20:15:00      0.000     0.000    0.0000
   03/18/2020 20:30:00      0.000     0.000    0.0000
   03/18/2020 20:45:00      0.000     0.000    0.0000
   03/18/2020 21:00:00      0.000     0.000    0.0000
   03/18/2020 21:15:00      0.000     0.000    0.0000
   03/18/2020 21:30:00      0.000     0.000    0.0000
   03/18/2020 21:45:00      0.000     0.000    0.0000
   03/18/2020 22:00:00      0.000     0.000    0.0000
   03/18/2020 22:15:00      0.000     0.000    0.0000
   03/18/2020 22:30:00      0.000     0.000    0.0000
   03/18/2020 22:45:00      0.000     0.000    0.0000
   03/18/2020 23:00:00      0.000     0.000    0.0000
   03/18/2020 23:15:00      0.000     0.000    0.0000
   03/18/2020 23:30:00      0.000     0.000    0.0000
   03/18/2020 23:45:00      0.000     0.000    0.0000
   03/19/2020 00:00:00      0.000     0.000    0.0000
   03/19/2020 00:15:00      0.000     0.000    0.0000
   03/19/2020 00:30:00      0.000     0.000    0.0000
   03/19/2020 00:45:00      0.000     0.000    0.0000
   03/19/2020 01:00:00      0.059     0.030    0.0000
   03/19/2020 01:15:00      0.059     0.030    0.0112
   03/19/2020 01:30:00      0.059     0.030    0.0221
   03/19/2020 01:45:00      0.059     0.030    0.0270
   03/19/2020 02:00:00      0.059     0.030    0.0461
   03/19/2020 02:15:00      0.059     0.030    0.0854
   03/19/2020 02:30:00      0.059     0.030    0.1065
   03/19/2020 02:45:00      0.059     0.030    0.1147
   03/19/2020 03:00:00      0.059     0.030    0.1176
   03/19/2020 03:15:00      0.059     0.030    0.1186
   03/19/2020 03:30:00      0.059     0.030    0.1189
   03/19/2020 03:45:00      0.059     0.030    0.1190
   03/19/2020 04:00:00      0.059     0.030    0.1191
   03/19/2020 04:15:00      0.059     0.030    0.1191
   03/19/2020 04:30:00      0.059     0.030    0.1191
   03/19/2020 04:45:00      0.059     0.030    0.1191
   03/19/2020 05:00:00      0.059     0.030    0.1191
   03/19/2020 05:15:00      0.059     0.030    0.1191
   03/19/2020 05:30:00      0.059     0.030    0.1191
   03/19/2020 05:45:00      0.059     0.030    0.1191
   03/19/2020 06:00:00      0.059     0.030    0.1191
   03/19/2020 06:15:00      0.059     0.030    0.1191
   03/19/2020 06:30:00      0.059     0.030    0.1191
   03/19/2020 06:45:00      0.059     0.030    0.1191
   03/19/2020 07:00:00      0.059     0.030    0.1191
   03/19/2020 07:15:00      0.059     0.030    0.1191
   03/19/2020 07:30:00      0.059     0.030    0.1191
   03/19/2020 07:45:00      0.059     0.030    0.1191
   03/19/2020 08:00:00      0.059     0.030    0.1191
   03/19/2020 08:15:00      0.059     0.030    0.1191
   03/19/2020 08:30:00      0.059     0.030    0.1191
   03/19/2020 08:45:00      0.059     0.030    0.1191
   03/19/2020 09:00:00      0.059     0.030    0.1191
   03/19/2020 09:15:00      0.059     0.030    0.1191
   03/19/2020 09:30:00      0.059     0.030    0.1191
   03/19/2020 09:45:00      0.059     0.030    0.1191
   03/19/2020 10:00:00      0.059     0.030    0.1191
   03/19/2020 10:15:00      0.059     0.030    0.1191
   03/19/2020 10:30:00      0.059     0.030    0.1191
   03/19/2020 10:45:00      0.059     0.030    0.1191
   03/19/2020 11:00:00      0.059     0.030    0.1191
   03/19/2020 11:15:00      0.059     0.030    0.1191
   03/19/2020 11:30:00      0.059     0.030    0.1191
   03/19/2020 11:45:00      0.059     0.030    0.1191
   03/19/2020 12:00:00      0.059     0.030    0.1191
   03/19/2020 12:15:00      0.059     0.030    0.1191
   03/19/2020 12:30:00      0.059     0.030    0.1191
   03/19/2020 12:45:00      0.059     0.030    0.1191
   03/19/2020 13:00:00      0.059     0.030    0.1191
   03/19/2020 13:15:00      0.059     0.030    0.1191
   03/19/2020 13:30:00      0.059     0.030    0.1191
   03/19/2020 13:45:00      0.059     0.030    0.1191
   03/19/2020 14:00:00      0.059     0.030    0.1191
   03/19/2020 14:15:00      0.059     0.030    0.1191
   03/19/2020 14:30:00      0.059     0.030    0.1191
   03/19/2020 14:45:00      0.059     0.030    0.1191
   03/19/2020 15:00:00      0.059     0.030    0.1191
   03/19/2020 15:15:00      0.059     0.030    0.1191
   03/19/2020 15:30:00      0.059     0.030    0.1191
   03/19/2020 15:45:00      0.059     0.030    0.1191
   03/19/2020 16:00:00      0.059     0.030    0.1191
   03/19/2020 16:15:00      0.059     0.030    0.1191
   03/19/2020 16:30:00      0.059     0.030    0.1191
   03/19/2020 16:45:00      0.059     0.030    0.1191
   03/19/2020 17:00:00      0.059     0.030    0.1191
   03/19/2020 17:15:00      0.059     0.030    0.1191
   03/19/2020 17:30:00      0.059     0.030    0.1191
   03/19/2020 17:45:00      0.059     0.030    0.1191
   03/19/2020 18:00:00      0.059     0.030    0.1191
   03/19/2020 18:15:00      0.059     0.030    0.1191
   03/19/2020 18:30:00      0.059     0.030    0.1191
   03/19/2020 18:45:00      0.059     0.030    0.1191
   03/19/2020 19:00:00      0.059     0.030    0.1191
   03/19/2020 19:15:00      0.059     0.030    0.1191
   03/19/2020 19:30:00      0.059     0.030    0.1191
   03/19/2020 19:45:00      0.059     0.030    0.1191
   03/19/2020 20:00:00      0.059     0.030    0.1191
  
  
  <<< Subcatchment DON_6 >>>
  ---------------------------------------------------
  Date        Time        Precip.    Losses    Runoff
                            in/hr     in/hr       CFS
  ---------------------------------------------------
   03/18/2020 20:15:00      0.000     0.000    0.0000
   03/18/2020 20:30:00      0.000     0.000    0.0000
   03/18/2020 20:45:00      0.000     0.000    0.0000
   03/18/2020 21:00:00      0.000     0.000    0.0000
   03/18/2020 21:15:00      0.000     0.000    0.0000
   03/18/2020 21:30:00      0.000     0.000    0.0000
   03/18/2020 21:45:00      0.000     0.000    0.0000
   03/18/2020 22:00:00      0.000     0.000    0.0000
   03/18/2020 22:15:00      0.000     0.000    0.0000
   03/18/2020 22:30:00      0.000     0.000    0.0000
   03/18/2020 22:45:00      0.000     0.000    0.0000
   03/18/2020 23:00:00      0.000     0.000    0.0000
   03/18/2020 23:15:00      0.000     0.000    0.0000
   03/18/2020 23:30:00      0.000     0.000    0.0000
   03/18/2020 23:45:00      0.000     0.000    0.0000
   03/19/2020 00:00:00      0.000     0.000    0.0000
   03/19/2020 00:15:00      0.000     0.000    0.0000
   03/19/2020 00:30:00      0.000     0.000    0.0000
   03/19/2020 00:45:00      0.000     0.000    0.0000
   03/19/2020 01:00:00      0.059     0.030    0.0000
   03/19/2020 01:15:00      0.059     0.030    0.0112
   03/19/2020 01:30:00      0.059     0.030    0.0221
   03/19/2020 01:45:00      0.059     0.030    0.0270
   03/19/2020 02:00:00      0.059     0.030    0.0461
   03/19/2020 02:15:00      0.059     0.030    0.0854
   03/19/2020 02:30:00      0.059     0.030    0.1065
   03/19/2020 02:45:00      0.059     0.030    0.1147
   03/19/2020 03:00:00      0.059     0.030    0.1176
   03/19/2020 03:15:00      0.059     0.030    0.1186
   03/19/2020 03:30:00      0.059     0.030    0.1189
   03/19/2020 03:45:00      0.059     0.030    0.1190
   03/19/2020 04:00:00      0.059     0.030    0.1191
   03/19/2020 04:15:00      0.059     0.030    0.1191
   03/19/2020 04:30:00      0.059     0.030    0.1191
   03/19/2020 04:45:00      0.059     0.030    0.1191
   03/19/2020 05:00:00      0.059     0.030    0.1191
   03/19/2020 05:15:00      0.059     0.030    0.1191
   03/19/2020 05:30:00      0.059     0.030    0.1191
   03/19/2020 05:45:00      0.059     0.030    0.1191
   03/19/2020 06:00:00      0.059     0.030    0.1191
   03/19/2020 06:15:00      0.059     0.030    0.1191
   03/19/2020 06:30:00      0.059     0.030    0.1191
   03/19/2020 06:45:00      0.059     0.030    0.1191
   03/19/2020 07:00:00      0.059     0.030    0.1191
   03/19/2020 07:15:00      0.059     0.030    0.1191
   03/19/2020 07:30:00      0.059     0.030    0.1191
   03/19/2020 07:45:00      0.059     0.030    0.1191
   03/19/2020 08:00:00      0.059     0.030    0.1191
   03/19/2020 08:15:00      0.059     0.030    0.1191
   03/19/2020 08:30:00      0.059     0.030    0.1191
   03/19/2020 08:45:00      0.059     0.030    0.1191
   03/19/2020 09:00:00      0.059     0.030    0.1191
   03/19/2020 09:15:00      0.059     0.030    0.1191
   03/19/2020 09:30:00      0.059     0.030    0.1191
   03/19/2020 09:45:00      0.059     0.030    0.1191
   03/19/2020 10:00:00      0.059     0.030    0.1191
   03/19/2020 10:15:00      0.059     0.030    0.1191
   03/19/2020 10:30:00      0.059     0.030    0.1191
   03/19/2020 10:45:00      0.059     0.030    0.1191
   03/19/2020 11:00:00      0.059     0.030    0.1191
   03/19/2020 11:15:00      0.059     0.030    0.1191
   03/19/2020 11:30:00      0.059     0.030    0.1191
   03/19/2020 11:45:00      0.059     0.030    0.1191
   03/19/2020 12:00:00      0.059     0.030    0.1191
   03/19/2020 12:15:00      0.059     0.030    0.1191
   03/19/2020 12:30:00      0.059     0.030    0.1191
   03/19/2020 12:45:00      0.059     0.030    0.1191
   03/19/2020 13:00:00      0.059     0.030    0.1191
   03/19/2020 13:15:00      0.059     0.030    0.1191
   03/19/2020 13:30:00      0.059     0.030    0.1191
   03/19/2020 13:45:00      0.059     0.030    0.1191
   03/19/2020 14:00:00      0.059     0.030    0.1191
   03/19/2020 14:15:00      0.059     0.030    0.1191
   03/19/2020 14:30:00      0.059     0.030    0.1191
   03/19/2020 14:45:00      0.059     0.030    0.1191
   03/19/2020 15:00:00      0.059     0.030    0.1191
   03/19/2020 15:15:00      0.059     0.030    0.1191
   03/19/2020 15:30:00      0.059     0.030    0.1191
   03/19/2020 15:45:00      0.059     0.030    0.1191
   03/19/2020 16:00:00      0.059     0.030    0.1191
   03/19/2020 16:15:00      0.059     0.030    0.1191
   03/19/2020 16:30:00      0.059     0.030    0.1191
   03/19/2020 16:45:00      0.059     0.030    0.1191
   03/19/2020 17:00:00      0.059     0.030    0.1191
   03/19/2020 17:15:00      0.059     0.030    0.1191
   03/19/2020 17:30:00      0.059     0.030    0.1191
   03/19/2020 17:45:00      0.059     0.030    0.1191
   03/19/2020 18:00:00      0.059     0.030    0.1191
   03/19/2020 18:15:00      0.059     0.030    0.1191
   03/19/2020 18:30:00      0.059     0.030    0.1191
   03/19/2020 18:45:00      0.059     0.030    0.1191
   03/19/2020 19:00:00      0.059     0.030    0.1191
   03/19/2020 19:15:00      0.059     0.030    0.1191
   03/19/2020 19:30:00      0.059     0.030    0.1191
   03/19/2020 19:45:00      0.059     0.030    0.1191
   03/19/2020 20:00:00      0.059     0.030    0.1191
  
  
  <<< Subcatchment DON_7 >>>
  ---------------------------------------------------
  Date        Time        Precip.    Losses    Runoff
                            in/hr     in/hr       CFS
  ---------------------------------------------------
   03/18/2020 20:15:00      0.000     0.000    0.0000
   03/18/2020 20:30:00      0.000     0.000    0.0000
   03/18/2020 20:45:00      0.000     0.000    0.0000
   03/18/2020 21:00:00      0.000     0.000    0.0000
   03/18/2020 21:15:00      0.000     0.000    0.0000
   03/18/2020 21:30:00      0.000     0.000    0.0000
   03/18/2020 21:45:00      0.000     0.000    0.0000
   03/18/2020 22:00:00      0.000     0.000    0.0000
   03/18/2020 22:15:00      0.000     0.000    0.0000
   03/18/2020 22:30:00      0.000     0.000    0.0000
   03/18/2020 22:45:00      0.000     0.000    0.0000
   03/18/2020 23:00:00      0.000     0.000    0.0000
   03/18/2020 23:15:00      0.000     0.000    0.0000
   03/18/2020 23:30:00      0.000     0.000    0.0000
   03/18/2020 23:45:00      0.000     0.000    0.0000
   03/19/2020 00:00:00      0.000     0.000    0.0000
   03/19/2020 00:15:00      0.000     0.000    0.0000
   03/19/2020 00:30:00      0.000     0.000    0.0000
   03/19/2020 00:45:00      0.000     0.000    0.0000
   03/19/2020 01:00:00      0.059     0.030    0.0000
   03/19/2020 01:15:00      0.059     0.030    0.0112
   03/19/2020 01:30:00      0.059     0.030    0.0221
   03/19/2020 01:45:00      0.059     0.030    0.0270
   03/19/2020 02:00:00      0.059     0.030    0.0461
   03/19/2020 02:15:00      0.059     0.030    0.0854
   03/19/2020 02:30:00      0.059     0.030    0.1065
   03/19/2020 02:45:00      0.059     0.030    0.1147
   03/19/2020 03:00:00      0.059     0.030    0.1176
   03/19/2020 03:15:00      0.059     0.030    0.1186
   03/19/2020 03:30:00      0.059     0.030    0.1189
   03/19/2020 03:45:00      0.059     0.030    0.1190
   03/19/2020 04:00:00      0.059     0.030    0.1191
   03/19/2020 04:15:00      0.059     0.030    0.1191
   03/19/2020 04:30:00      0.059     0.030    0.1191
   03/19/2020 04:45:00      0.059     0.030    0.1191
   03/19/2020 05:00:00      0.059     0.030    0.1191
   03/19/2020 05:15:00      0.059     0.030    0.1191
   03/19/2020 05:30:00      0.059     0.030    0.1191
   03/19/2020 05:45:00      0.059     0.030    0.1191
   03/19/2020 06:00:00      0.059     0.030    0.1191
   03/19/2020 06:15:00      0.059     0.030    0.1191
   03/19/2020 06:30:00      0.059     0.030    0.1191
   03/19/2020 06:45:00      0.059     0.030    0.1191
   03/19/2020 07:00:00      0.059     0.030    0.1191
   03/19/2020 07:15:00      0.059     0.030    0.1191
   03/19/2020 07:30:00      0.059     0.030    0.1191
   03/19/2020 07:45:00      0.059     0.030    0.1191
   03/19/2020 08:00:00      0.059     0.030    0.1191
   03/19/2020 08:15:00      0.059     0.030    0.1191
   03/19/2020 08:30:00      0.059     0.030    0.1191
   03/19/2020 08:45:00      0.059     0.030    0.1191
   03/19/2020 09:00:00      0.059     0.030    0.1191
   03/19/2020 09:15:00      0.059     0.030    0.1191
   03/19/2020 09:30:00      0.059     0.030    0.1191
   03/19/2020 09:45:00      0.059     0.030    0.1191
   03/19/2020 10:00:00      0.059     0.030    0.1191
   03/19/2020 10:15:00      0.059     0.030    0.1191
   03/19/2020 10:30:00      0.059     0.030    0.1191
   03/19/2020 10:45:00      0.059     0.030    0.1191
   03/19/2020 11:00:00      0.059     0.030    0.1191
   03/19/2020 11:15:00      0.059     0.030    0.1191
   03/19/2020 11:30:00      0.059     0.030    0.1191
   03/19/2020 11:45:00      0.059     0.030    0.1191
   03/19/2020 12:00:00      0.059     0.030    0.1191
   03/19/2020 12:15:00      0.059     0.030    0.1191
   03/19/2020 12:30:00      0.059     0.030    0.1191
   03/19/2020 12:45:00      0.059     0.030    0.1191
   03/19/2020 13:00:00      0.059     0.030    0.1191
   03/19/2020 13:15:00      0.059     0.030    0.1191
   03/19/2020 13:30:00      0.059     0.030    0.1191
   03/19/2020 13:45:00      0.059     0.030    0.1191
   03/19/2020 14:00:00      0.059     0.030    0.1191
   03/19/2020 14:15:00      0.059     0.030    0.1191
   03/19/2020 14:30:00      0.059     0.030    0.1191
   03/19/2020 14:45:00      0.059     0.030    0.1191
   03/19/2020 15:00:00      0.059     0.030    0.1191
   03/19/2020 15:15:00      0.059     0.030    0.1191
   03/19/2020 15:30:00      0.059     0.030    0.1191
   03/19/2020 15:45:00      0.059     0.030    0.1191
   03/19/2020 16:00:00      0.059     0.030    0.1191
   03/19/2020 16:15:00      0.059     0.030    0.1191
   03/19/2020 16:30:00      0.059     0.030    0.1191
   03/19/2020 16:45:00      0.059     0.030    0.1191
   03/19/2020 17:00:00      0.059     0.030    0.1191
   03/19/2020 17:15:00      0.059     0.030    0.1191
   03/19/2020 17:30:00      0.059     0.030    0.1191
   03/19/2020 17:45:00      0.059     0.030    0.1191
   03/19/2020 18:00:00      0.059     0.030    0.1191
   03/19/2020 18:15:00      0.059     0.030    0.1191
   03/19/2020 18:30:00      0.059     0.030    0.1191
   03/19/2020 18:45:00      0.059     0.030    0.1191
   03/19/2020 19:00:00      0.059     0.030    0.1191
   03/19/2020 19:15:00      0.059     0.030    0.1191
   03/19/2020 19:30:00      0.059     0.030    0.1191
   03/19/2020 19:45:00      0.059     0.030    0.1191
   03/19/2020 20:00:00      0.059     0.030    0.1191
  
  
  <<< Subcatchment DON_8 >>>
  ---------------------------------------------------
  Date        Time        Precip.    Losses    Runoff
                            in/hr     in/hr       CFS
  ---------------------------------------------------
   03/18/2020 20:15:00      0.000     0.000    0.0000
   03/18/2020 20:30:00      0.000     0.000    0.0000
   03/18/2020 20:45:00      0.000     0.000    0.0000
   03/18/2020 21:00:00      0.000     0.000    0.0000
   03/18/2020 21:15:00      0.000     0.000    0.0000
   03/18/2020 21:30:00      0.000     0.000    0.0000
   03/18/2020 21:45:00      0.000     0.000    0.0000
   03/18/2020 22:00:00      0.000     0.000    0.0000
   03/18/2020 22:15:00      0.000     0.000    0.0000
   03/18/2020 22:30:00      0.000     0.000    0.0000
   03/18/2020 22:45:00      0.000     0.000    0.0000
   03/18/2020 23:00:00      0.000     0.000    0.0000
   03/18/2020 23:15:00      0.000     0.000    0.0000
   03/18/2020 23:30:00      0.000     0.000    0.0000
   03/18/2020 23:45:00      0.000     0.000    0.0000
   03/19/2020 00:00:00      0.000     0.000    0.0000
   03/19/2020 00:15:00      0.000     0.000    0.0000
   03/19/2020 00:30:00      0.000     0.000    0.0000
   03/19/2020 00:45:00      0.000     0.000    0.0000
   03/19/2020 01:00:00      0.059     0.030    0.0000
   03/19/2020 01:15:00      0.059     0.030    0.0112
   03/19/2020 01:30:00      0.059     0.030    0.0221
   03/19/2020 01:45:00      0.059     0.030    0.0270
   03/19/2020 02:00:00      0.059     0.030    0.0461
   03/19/2020 02:15:00      0.059     0.030    0.0854
   03/19/2020 02:30:00      0.059     0.030    0.1065
   03/19/2020 02:45:00      0.059     0.030    0.1147
   03/19/2020 03:00:00      0.059     0.030    0.1176
   03/19/2020 03:15:00      0.059     0.030    0.1186
   03/19/2020 03:30:00      0.059     0.030    0.1189
   03/19/2020 03:45:00      0.059     0.030    0.1190
   03/19/2020 04:00:00      0.059     0.030    0.1191
   03/19/2020 04:15:00      0.059     0.030    0.1191
   03/19/2020 04:30:00      0.059     0.030    0.1191
   03/19/2020 04:45:00      0.059     0.030    0.1191
   03/19/2020 05:00:00      0.059     0.030    0.1191
   03/19/2020 05:15:00      0.059     0.030    0.1191
   03/19/2020 05:30:00      0.059     0.030    0.1191
   03/19/2020 05:45:00      0.059     0.030    0.1191
   03/19/2020 06:00:00      0.059     0.030    0.1191
   03/19/2020 06:15:00      0.059     0.030    0.1191
   03/19/2020 06:30:00      0.059     0.030    0.1191
   03/19/2020 06:45:00      0.059     0.030    0.1191
   03/19/2020 07:00:00      0.059     0.030    0.1191
   03/19/2020 07:15:00      0.059     0.030    0.1191
   03/19/2020 07:30:00      0.059     0.030    0.1191
   03/19/2020 07:45:00      0.059     0.030    0.1191
   03/19/2020 08:00:00      0.059     0.030    0.1191
   03/19/2020 08:15:00      0.059     0.030    0.1191
   03/19/2020 08:30:00      0.059     0.030    0.1191
   03/19/2020 08:45:00      0.059     0.030    0.1191
   03/19/2020 09:00:00      0.059     0.030    0.1191
   03/19/2020 09:15:00      0.059     0.030    0.1191
   03/19/2020 09:30:00      0.059     0.030    0.1191
   03/19/2020 09:45:00      0.059     0.030    0.1191
   03/19/2020 10:00:00      0.059     0.030    0.1191
   03/19/2020 10:15:00      0.059     0.030    0.1191
   03/19/2020 10:30:00      0.059     0.030    0.1191
   03/19/2020 10:45:00      0.059     0.030    0.1191
   03/19/2020 11:00:00      0.059     0.030    0.1191
   03/19/2020 11:15:00      0.059     0.030    0.1191
   03/19/2020 11:30:00      0.059     0.030    0.1191
   03/19/2020 11:45:00      0.059     0.030    0.1191
   03/19/2020 12:00:00      0.059     0.030    0.1191
   03/19/2020 12:15:00      0.059     0.030    0.1191
   03/19/2020 12:30:00      0.059     0.030    0.1191
   03/19/2020 12:45:00      0.059     0.030    0.1191
   03/19/2020 13:00:00      0.059     0.030    0.1191
   03/19/2020 13:15:00      0.059     0.030    0.1191
   03/19/2020 13:30:00      0.059     0.030    0.1191
   03/19/2020 13:45:00      0.059     0.030    0.1191
   03/19/2020 14:00:00      0.059     0.030    0.1191
   03/19/2020 14:15:00      0.059     0.030    0.1191
   03/19/2020 14:30:00      0.059     0.030    0.1191
   03/19/2020 14:45:00      0.059     0.030    0.1191
   03/19/2020 15:00:00      0.059     0.030    0.1191
   03/19/2020 15:15:00      0.059     0.030    0.1191
   03/19/2020 15:30:00      0.059     0.030    0.1191
   03/19/2020 15:45:00      0.059     0.030    0.1191
   03/19/2020 16:00:00      0.059     0.030    0.1191
   03/19/2020 16:15:00      0.059     0.030    0.1191
   03/19/2020 16:30:00      0.059     0.030    0.1191
   03/19/2020 16:45:00      0.059     0.030    0.1191
   03/19/2020 17:00:00      0.059     0.030    0.1191
   03/19/2020 17:15:00      0.059     0.030    0.1191
   03/19/2020 17:30:00      0.059     0.030    0.1191
   03/19/2020 17:45:00      0.059     0.030    0.1191
   03/19/2020 18:00:00      0.059     0.030    0.1191
   03/19/2020 18:15:00      0.059     0.030    0.1191
   03/19/2020 18:30:00      0.059     0.030    0.1191
   03/19/2020 18:45:00      0.059     0.030    0.1191
   03/19/2020 19:00:00      0.059     0.030    0.1191
   03/19/2020 19:15:00      0.059     0.030    0.1191
   03/19/2020 19:30:00      0.059     0.030    0.1191
   03/19/2020 19:45:00      0.059     0.030    0.1191
   03/19/2020 20:00:00      0.059     0.030    0.1191
  
  
  <<< Subcatchment DON_9 >>>
  ---------------------------------------------------
  Date        Time        Precip.    Losses    Runoff
                            in/hr     in/hr       CFS
  ---------------------------------------------------
   03/18/2020 20:15:00      0.000     0.000    0.0000
   03/18/2020 20:30:00      0.000     0.000    0.0000
   03/18/2020 20:45:00      0.000     0.000    0.0000
   03/18/2020 21:00:00      0.000     0.000    0.0000
   03/18/2020 21:15:00      0.000     0.000    0.0000
   03/18/2020 21:30:00      0.000     0.000    0.0000
   03/18/2020 21:45:00      0.000     0.000    0.0000
   03/18/2020 22:00:00      0.000     0.000    0.0000
   03/18/2020 22:15:00      0.000     0.000    0.0000
   03/18/2020 22:30:00      0.000     0.000    0.0000
   03/18/2020 22:45:00      0.000     0.000    0.0000
   03/18/2020 23:00:00      0.000     0.000    0.0000
   03/18/2020 23:15:00      0.000     0.000    0.0000
   03/18/2020 23:30:00      0.000     0.000    0.0000
   03/18/2020 23:45:00      0.000     0.000    0.0000
   03/19/2020 00:00:00      0.000     0.000    0.0000
   03/19/2020 00:15:00      0.000     0.000    0.0000
   03/19/2020 00:30:00      0.000     0.000    0.0000
   03/19/2020 00:45:00      0.000     0.000    0.0000
   03/19/2020 01:00:00      0.059     0.030    0.0000
   03/19/2020 01:15:00      0.059     0.030    0.0112
   03/19/2020 01:30:00      0.059     0.030    0.0221
   03/19/2020 01:45:00      0.059     0.030    0.0270
   03/19/2020 02:00:00      0.059     0.030    0.0461
   03/19/2020 02:15:00      0.059     0.030    0.0854
   03/19/2020 02:30:00      0.059     0.030    0.1065
   03/19/2020 02:45:00      0.059     0.030    0.1147
   03/19/2020 03:00:00      0.059     0.030    0.1176
   03/19/2020 03:15:00      0.059     0.030    0.1186
   03/19/2020 03:30:00      0.059     0.030    0.1189
   03/19/2020 03:45:00      0.059     0.030    0.1190
   03/19/2020 04:00:00      0.059     0.030    0.1191
   03/19/2020 04:15:00      0.059     0.030    0.1191
   03/19/2020 04:30:00      0.059     0.030    0.1191
   03/19/2020 04:45:00      0.059     0.030    0.1191
   03/19/2020 05:00:00      0.059     0.030    0.1191
   03/19/2020 05:15:00      0.059     0.030    0.1191
   03/19/2020 05:30:00      0.059     0.030    0.1191
   03/19/2020 05:45:00      0.059     0.030    0.1191
   03/19/2020 06:00:00      0.059     0.030    0.1191
   03/19/2020 06:15:00      0.059     0.030    0.1191
   03/19/2020 06:30:00      0.059     0.030    0.1191
   03/19/2020 06:45:00      0.059     0.030    0.1191
   03/19/2020 07:00:00      0.059     0.030    0.1191
   03/19/2020 07:15:00      0.059     0.030    0.1191
   03/19/2020 07:30:00      0.059     0.030    0.1191
   03/19/2020 07:45:00      0.059     0.030    0.1191
   03/19/2020 08:00:00      0.059     0.030    0.1191
   03/19/2020 08:15:00      0.059     0.030    0.1191
   03/19/2020 08:30:00      0.059     0.030    0.1191
   03/19/2020 08:45:00      0.059     0.030    0.1191
   03/19/2020 09:00:00      0.059     0.030    0.1191
   03/19/2020 09:15:00      0.059     0.030    0.1191
   03/19/2020 09:30:00      0.059     0.030    0.1191
   03/19/2020 09:45:00      0.059     0.030    0.1191
   03/19/2020 10:00:00      0.059     0.030    0.1191
   03/19/2020 10:15:00      0.059     0.030    0.1191
   03/19/2020 10:30:00      0.059     0.030    0.1191
   03/19/2020 10:45:00      0.059     0.030    0.1191
   03/19/2020 11:00:00      0.059     0.030    0.1191
   03/19/2020 11:15:00      0.059     0.030    0.1191
   03/19/2020 11:30:00      0.059     0.030    0.1191
   03/19/2020 11:45:00      0.059     0.030    0.1191
   03/19/2020 12:00:00      0.059     0.030    0.1191
   03/19/2020 12:15:00      0.059     0.030    0.1191
   03/19/2020 12:30:00      0.059     0.030    0.1191
   03/19/2020 12:45:00      0.059     0.030    0.1191
   03/19/2020 13:00:00      0.059     0.030    0.1191
   03/19/2020 13:15:00      0.059     0.030    0.1191
   03/19/2020 13:30:00      0.059     0.030    0.1191
   03/19/2020 13:45:00      0.059     0.030    0.1191
   03/19/2020 14:00:00      0.059     0.030    0.1191
   03/19/2020 14:15:00      0.059     0.030    0.1191
   03/19/2020 14:30:00      0.059     0.030    0.1191
   03/19/2020 14:45:00      0.059     0.030    0.1191
   03/19/2020 15:00:00      0.059     0.030    0.1191
   03/19/2020 15:15:00      0.059     0.030    0.1191
   03/19/2020 15:30:00      0.059     0.030    0.1191
   03/19/2020 15:45:00      0.059     0.030    0.1191
   03/19/2020 16:00:00      0.059     0.030    0.1191
   03/19/2020 16:15:00      0.059     0.030    0.1191
   03/19/2020 16:30:00      0.059     0.030    0.1191
   03/19/2020 16:45:00      0.059     0.030    0.1191
   03/19/2020 17:00:00      0.059     0.030    0.1191
   03/19/2020 17:15:00      0.059     0.030    0.1191
   03/19/2020 17:30:00      0.059     0.030    0.1191
   03/19/2020 17:45:00      0.059     0.030    0.1191
   03/19/2020 18:00:00      0.059     0.030    0.1191
   03/19/2020 18:15:00      0.059     0.030    0.1191
   03/19/2020 18:30:00      0.059     0.030    0.1191
   03/19/2020 18:45:00      0.059     0.030    0.1191
   03/19/2020 19:00:00      0.059     0.030    0.1191
   03/19/2020 19:15:00      0.059     0.030    0.1191
   03/19/2020 19:30:00      0.059     0.030    0.1191
   03/19/2020 19:45:00      0.059     0.030    0.1191
   03/19/2020 20:00:00      0.059     0.030    0.1191
  
  
  <<< Subcatchment DON_10 >>>
  ---------------------------------------------------
  Date        Time        Precip.    Losses    Runoff
                            in/hr     in/hr       CFS
  ---------------------------------------------------
   03/18/2020 20:15:00      0.000     0.000    0.0000
   03/18/2020 20:30:00      0.000     0.000    0.0000
   03/18/2020 20:45:00      0.000     0.000    0.0000
   03/18/2020 21:00:00      0.000     0.000    0.0000
   03/18/2020 21:15:00      0.000     0.000    0.0000
   03/18/2020 21:30:00      0.000     0.000    0.0000
   03/18/2020 21:45:00      0.000     0.000    0.0000
   03/18/2020 22:00:00      0.000     0.000    0.0000
   03/18/2020 22:15:00      0.000     0.000    0.0000
   03/18/2020 22:30:00      0.000     0.000    0.0000
   03/18/2020 22:45:00      0.000     0.000    0.0000
   03/18/2020 23:00:00      0.000     0.000    0.0000
   03/18/2020 23:15:00      0.000     0.000    0.0000
   03/18/2020 23:30:00      0.000     0.000    0.0000
   03/18/2020 23:45:00      0.000     0.000    0.0000
   03/19/2020 00:00:00      0.000     0.000    0.0000
   03/19/2020 00:15:00      0.000     0.000    0.0000
   03/19/2020 00:30:00      0.000     0.000    0.0000
   03/19/2020 00:45:00      0.000     0.000    0.0000
   03/19/2020 01:00:00      0.059     0.030    0.0000
   03/19/2020 01:15:00      0.059     0.030    0.0112
   03/19/2020 01:30:00      0.059     0.030    0.0221
   03/19/2020 01:45:00      0.059     0.030    0.0270
   03/19/2020 02:00:00      0.059     0.030    0.0461
   03/19/2020 02:15:00      0.059     0.030    0.0854
   03/19/2020 02:30:00      0.059     0.030    0.1065
   03/19/2020 02:45:00      0.059     0.030    0.1147
   03/19/2020 03:00:00      0.059     0.030    0.1176
   03/19/2020 03:15:00      0.059     0.030    0.1186
   03/19/2020 03:30:00      0.059     0.030    0.1189
   03/19/2020 03:45:00      0.059     0.030    0.1190
   03/19/2020 04:00:00      0.059     0.030    0.1191
   03/19/2020 04:15:00      0.059     0.030    0.1191
   03/19/2020 04:30:00      0.059     0.030    0.1191
   03/19/2020 04:45:00      0.059     0.030    0.1191
   03/19/2020 05:00:00      0.059     0.030    0.1191
   03/19/2020 05:15:00      0.059     0.030    0.1191
   03/19/2020 05:30:00      0.059     0.030    0.1191
   03/19/2020 05:45:00      0.059     0.030    0.1191
   03/19/2020 06:00:00      0.059     0.030    0.1191
   03/19/2020 06:15:00      0.059     0.030    0.1191
   03/19/2020 06:30:00      0.059     0.030    0.1191
   03/19/2020 06:45:00      0.059     0.030    0.1191
   03/19/2020 07:00:00      0.059     0.030    0.1191
   03/19/2020 07:15:00      0.059     0.030    0.1191
   03/19/2020 07:30:00      0.059     0.030    0.1191
   03/19/2020 07:45:00      0.059     0.030    0.1191
   03/19/2020 08:00:00      0.059     0.030    0.1191
   03/19/2020 08:15:00      0.059     0.030    0.1191
   03/19/2020 08:30:00      0.059     0.030    0.1191
   03/19/2020 08:45:00      0.059     0.030    0.1191
   03/19/2020 09:00:00      0.059     0.030    0.1191
   03/19/2020 09:15:00      0.059     0.030    0.1191
   03/19/2020 09:30:00      0.059     0.030    0.1191
   03/19/2020 09:45:00      0.059     0.030    0.1191
   03/19/2020 10:00:00      0.059     0.030    0.1191
   03/19/2020 10:15:00      0.059     0.030    0.1191
   03/19/2020 10:30:00      0.059     0.030    0.1191
   03/19/2020 10:45:00      0.059     0.030    0.1191
   03/19/2020 11:00:00      0.059     0.030    0.1191
   03/19/2020 11:15:00      0.059     0.030    0.1191
   03/19/2020 11:30:00      0.059     0.030    0.1191
   03/19/2020 11:45:00      0.059     0.030    0.1191
   03/19/2020 12:00:00      0.059     0.030    0.1191
   03/19/2020 12:15:00      0.059     0.030    0.1191
   03/19/2020 12:30:00      0.059     0.030    0.1191
   03/19/2020 12:45:00      0.059     0.030    0.1191
   03/19/2020 13:00:00      0.059     0.030    0.1191
   03/19/2020 13:15:00      0.059     0.030    0.1191
   03/19/2020 13:30:00      0.059     0.030    0.1191
   03/19/2020 13:45:00      0.059     0.030    0.1191
   03/19/2020 14:00:00      0.059     0.030    0.1191
   03/19/2020 14:15:00      0.059     0.030    0.1191
   03/19/2020 14:30:00      0.059     0.030    0.1191
   03/19/2020 14:45:00      0.059     0.030    0.1191
   03/19/2020 15:00:00      0.059     0.030    0.1191
   03/19/2020 15:15:00      0.059     0.030    0.1191
   03/19/2020 15:30:00      0.059     0.030    0.1191
   03/19/2020 15:45:00      0.059     0.030    0.1191
   03/19/2020 16:00:00      0.059     0.030    0.1191
   03/19/2020 16:15:00      0.059     0.030    0.1191
   03/19/2020 16:30:00      0.059     0.030    0.1191
   03/19/2020 16:45:00      0.059     0.030    0.1191
   03/19/2020 17:00:00      0.059     0.030    0.1191
   03/19/2020 17:15:00      0.059     0.030    0.1191
   03/19/2020 17:30:00      0.059     0.030    0.1191
   03/19/2020 17:45:00      0.059     0.030    0.1191
   03/19/2020 18:00:00      0.059     0.030    0.1191
   03/19/2020 18:15:00      0.059     0.030    0.1191
   03/19/2020 18:30:00      0.059     0.030    0.1191
   03/19/2020 18:45:00      0.059     0.030    0.1191
   03/19/2020 19:00:00      0.059     0.030    0.1191
   03/19/2020 19:15:00      0.059     0.030    0.1191
   03/19/2020 19:30:00      0.059     0.030    0.1191
   03/19/2020 19:45:00      0.059     0.030    0.1191
   03/19/2020 20:00:00      0.059     0.030    0.1191
  
  
  <<< Subcatchment DON_11 >>>
  ---------------------------------------------------
  Date        Time        Precip.    Losses    Runoff
                            in/hr     in/hr       CFS
  ---------------------------------------------------
   03/18/2020 20:15:00      0.000     0.000    0.0000
   03/18/2020 20:30:00      0.000     0.000    0.0000
   03/18/2020 20:45:00      0.000     0.000    0.0000
   03/18/2020 21:00:00      0.000     0.000    0.0000
   03/18/2020 21:15:00      0.000     0.000    0.0000
   03/18/2020 21:30:00      0.000     0.000    0.0000
   03/18/2020 21:45:00      0.000     0.000    0.0000
   03/18/2020 22:00:00      0.000     0.000    0.0000
   03/18/2020 22:15:00      0.000     0.000    0.0000
   03/18/2020 22:30:00      0.000     0.000    0.0000
   03/18/2020 22:45:00      0.000     0.000    0.0000
   03/18/2020 23:00:00      0.000     0.000    0.0000
   03/18/2020 23:15:00      0.000     0.000    0.0000
   03/18/2020 23:30:00      0.000     0.000    0.0000
   03/18/2020 23:45:00      0.000     0.000    0.0000
   03/19/2020 00:00:00      0.000     0.000    0.0000
   03/19/2020 00:15:00      0.000     0.000    0.0000
   03/19/2020 00:30:00      0.000     0.000    0.0000
   03/19/2020 00:45:00      0.000     0.000    0.0000
   03/19/2020 01:00:00      0.059     0.030    0.0000
   03/19/2020 01:15:00      0.059     0.030    0.0112
   03/19/2020 01:30:00      0.059     0.030    0.0221
   03/19/2020 01:45:00      0.059     0.030    0.0270
   03/19/2020 02:00:00      0.059     0.030    0.0461
   03/19/2020 02:15:00      0.059     0.030    0.0854
   03/19/2020 02:30:00      0.059     0.030    0.1065
   03/19/2020 02:45:00      0.059     0.030    0.1147
   03/19/2020 03:00:00      0.059     0.030    0.1176
   03/19/2020 03:15:00      0.059     0.030    0.1186
   03/19/2020 03:30:00      0.059     0.030    0.1189
   03/19/2020 03:45:00      0.059     0.030    0.1190
   03/19/2020 04:00:00      0.059     0.030    0.1191
   03/19/2020 04:15:00      0.059     0.030    0.1191
   03/19/2020 04:30:00      0.059     0.030    0.1191
   03/19/2020 04:45:00      0.059     0.030    0.1191
   03/19/2020 05:00:00      0.059     0.030    0.1191
   03/19/2020 05:15:00      0.059     0.030    0.1191
   03/19/2020 05:30:00      0.059     0.030    0.1191
   03/19/2020 05:45:00      0.059     0.030    0.1191
   03/19/2020 06:00:00      0.059     0.030    0.1191
   03/19/2020 06:15:00      0.059     0.030    0.1191
   03/19/2020 06:30:00      0.059     0.030    0.1191
   03/19/2020 06:45:00      0.059     0.030    0.1191
   03/19/2020 07:00:00      0.059     0.030    0.1191
   03/19/2020 07:15:00      0.059     0.030    0.1191
   03/19/2020 07:30:00      0.059     0.030    0.1191
   03/19/2020 07:45:00      0.059     0.030    0.1191
   03/19/2020 08:00:00      0.059     0.030    0.1191
   03/19/2020 08:15:00      0.059     0.030    0.1191
   03/19/2020 08:30:00      0.059     0.030    0.1191
   03/19/2020 08:45:00      0.059     0.030    0.1191
   03/19/2020 09:00:00      0.059     0.030    0.1191
   03/19/2020 09:15:00      0.059     0.030    0.1191
   03/19/2020 09:30:00      0.059     0.030    0.1191
   03/19/2020 09:45:00      0.059     0.030    0.1191
   03/19/2020 10:00:00      0.059     0.030    0.1191
   03/19/2020 10:15:00      0.059     0.030    0.1191
   03/19/2020 10:30:00      0.059     0.030    0.1191
   03/19/2020 10:45:00      0.059     0.030    0.1191
   03/19/2020 11:00:00      0.059     0.030    0.1191
   03/19/2020 11:15:00      0.059     0.030    0.1191
   03/19/2020 11:30:00      0.059     0.030    0.1191
   03/19/2020 11:45:00      0.059     0.030    0.1191
   03/19/2020 12:00:00      0.059     0.030    0.1191
   03/19/2020 12:15:00      0.059     0.030    0.1191
   03/19/2020 12:30:00      0.059     0.030    0.1191
   03/19/2020 12:45:00      0.059     0.030    0.1191
   03/19/2020 13:00:00      0.059     0.030    0.1191
   03/19/2020 13:15:00      0.059     0.030    0.1191
   03/19/2020 13:30:00      0.059     0.030    0.1191
   03/19/2020 13:45:00      0.059     0.030    0.1191
   03/19/2020 14:00:00      0.059     0.030    0.1191
   03/19/2020 14:15:00      0.059     0.030    0.1191
   03/19/2020 14:30:00      0.059     0.030    0.1191
   03/19/2020 14:45:00      0.059     0.030    0.1191
   03/19/2020 15:00:00      0.059     0.030    0.1191
   03/19/2020 15:15:00      0.059     0.030    0.1191
   03/19/2020 15:30:00      0.059     0.030    0.1191
   03/19/2020 15:45:00      0.059     0.030    0.1191
   03/19/2020 16:00:00      0.059     0.030    0.1191
   03/19/2020 16:15:00      0.059     0.030    0.1191
   03/19/2020 16:30:00      0.059     0.030    0.1191
   03/19/2020 16:45:00      0.059     0.030    0.1191
   03/19/2020 17:00:00      0.059     0.030    0.1191
   03/19/2020 17:15:00      0.059     0.030    0.1191
   03/19/2020 17:30:00      0.059     0.030    0.1191
   03/19/2020 17:45:00      0.059     0.030    0.1191
   03/19/2020 18:00:00      0.059     0.030    0.1191
   03/19/2020 18:15:00      0.059     0.030    0.1191
   03/19/2020 18:30:00      0.059     0.030    0.1191
   03/19/2020 18:45:00      0.059     0.030    0.1191
   03/19/2020 19:00:00      0.059     0.030    0.1191
   03/19/2020 19:15:00      0.059     0.030    0.1191
   03/19/2020 19:30:00      0.059     0.030    0.1191
   03/19/2020 19:45:00      0.059     0.030    0.1191
   03/19/2020 20:00:00      0.059     0.030    0.1191
  
  
  <<< Subcatchment DON_2 >>>
  ---------------------------------------------------
  Date        Time        Precip.    Losses    Runoff
                            in/hr     in/hr       CFS
  ---------------------------------------------------
   03/18/2020 20:15:00      0.000     0.000    0.0000
   03/18/2020 20:30:00      0.000     0.000    0.0000
   03/18/2020 20:45:00      0.000     0.000    0.0000
   03/18/2020 21:00:00      0.000     0.000    0.0000
   03/18/2020 21:15:00      0.000     0.000    0.0000
   03/18/2020 21:30:00      0.000     0.000    0.0000
   03/18/2020 21:45:00      0.000     0.000    0.0000
   03/18/2020 22:00:00      0.000     0.000    0.0000
   03/18/2020 22:15:00      0.000     0.000    0.0000
   03/18/2020 22:30:00      0.000     0.000    0.0000
   03/18/2020 22:45:00      0.000     0.000    0.0000
   03/18/2020 23:00:00      0.000     0.000    0.0000
   03/18/2020 23:15:00      0.000     0.000    0.0000
   03/18/2020 23:30:00      0.000     0.000    0.0000
   03/18/2020 23:45:00      0.000     0.000    0.0000
   03/19/2020 00:00:00      0.000     0.000    0.0000
   03/19/2020 00:15:00      0.000     0.000    0.0000
   03/19/2020 00:30:00      0.000     0.000    0.0000
   03/19/2020 00:45:00      0.000     0.000    0.0000
   03/19/2020 01:00:00      0.059     0.030    0.0000
   03/19/2020 01:15:00      0.059     0.030    0.0112
   03/19/2020 01:30:00      0.059     0.030    0.0221
   03/19/2020 01:45:00      0.059     0.030    0.0270
   03/19/2020 02:00:00      0.059     0.030    0.0461
   03/19/2020 02:15:00      0.059     0.030    0.0854
   03/19/2020 02:30:00      0.059     0.030    0.1065
   03/19/2020 02:45:00      0.059     0.030    0.1147
   03/19/2020 03:00:00      0.059     0.030    0.1176
   03/19/2020 03:15:00      0.059     0.030    0.1186
   03/19/2020 03:30:00      0.059     0.030    0.1189
   03/19/2020 03:45:00      0.059     0.030    0.1190
   03/19/2020 04:00:00      0.059     0.030    0.1191
   03/19/2020 04:15:00      0.059     0.030    0.1191
   03/19/2020 04:30:00      0.059     0.030    0.1191
   03/19/2020 04:45:00      0.059     0.030    0.1191
   03/19/2020 05:00:00      0.059     0.030    0.1191
   03/19/2020 05:15:00      0.059     0.030    0.1191
   03/19/2020 05:30:00      0.059     0.030    0.1191
   03/19/2020 05:45:00      0.059     0.030    0.1191
   03/19/2020 06:00:00      0.059     0.030    0.1191
   03/19/2020 06:15:00      0.059     0.030    0.1191
   03/19/2020 06:30:00      0.059     0.030    0.1191
   03/19/2020 06:45:00      0.059     0.030    0.1191
   03/19/2020 07:00:00      0.059     0.030    0.1191
   03/19/2020 07:15:00      0.059     0.030    0.1191
   03/19/2020 07:30:00      0.059     0.030    0.1191
   03/19/2020 07:45:00      0.059     0.030    0.1191
   03/19/2020 08:00:00      0.059     0.030    0.1191
   03/19/2020 08:15:00      0.059     0.030    0.1191
   03/19/2020 08:30:00      0.059     0.030    0.1191
   03/19/2020 08:45:00      0.059     0.030    0.1191
   03/19/2020 09:00:00      0.059     0.030    0.1191
   03/19/2020 09:15:00      0.059     0.030    0.1191
   03/19/2020 09:30:00      0.059     0.030    0.1191
   03/19/2020 09:45:00      0.059     0.030    0.1191
   03/19/2020 10:00:00      0.059     0.030    0.1191
   03/19/2020 10:15:00      0.059     0.030    0.1191
   03/19/2020 10:30:00      0.059     0.030    0.1191
   03/19/2020 10:45:00      0.059     0.030    0.1191
   03/19/2020 11:00:00      0.059     0.030    0.1191
   03/19/2020 11:15:00      0.059     0.030    0.1191
   03/19/2020 11:30:00      0.059     0.030    0.1191
   03/19/2020 11:45:00      0.059     0.030    0.1191
   03/19/2020 12:00:00      0.059     0.030    0.1191
   03/19/2020 12:15:00      0.059     0.030    0.1191
   03/19/2020 12:30:00      0.059     0.030    0.1191
   03/19/2020 12:45:00      0.059     0.030    0.1191
   03/19/2020 13:00:00      0.059     0.030    0.1191
   03/19/2020 13:15:00      0.059     0.030    0.1191
   03/19/2020 13:30:00      0.059     0.030    0.1191
   03/19/2020 13:45:00      0.059     0.030    0.1191
   03/19/2020 14:00:00      0.059     0.030    0.1191
   03/19/2020 14:15:00      0.059     0.030    0.1191
   03/19/2020 14:30:00      0.059     0.030    0.1191
   03/19/2020 14:45:00      0.059     0.030    0.1191
   03/19/2020 15:00:00      0.059     0.030    0.1191
   03/19/2020 15:15:00      0.059     0.030    0.1191
   03/19/2020 15:30:00      0.059     0.030    0.1191
   03/19/2020 15:45:00      0.059     0.030    0.1191
   03/19/2020 16:00:00      0.059     0.030    0.1191
   03/19/2020 16:15:00      0.059     0.030    0.1191
   03/19/2020 16:30:00      0.059     0.030    0.1191
   03/19/2020 16:45:00      0.059     0.030    0.1191
   03/19/2020 17:00:00      0.059     0.030    0.1191
   03/19/2020 17:15:00      0.059     0.030    0.1191
   03/19/2020 17:30:00      0.059     0.030    0.1191
   03/19/2020 17:45:00      0.059     0.030    0.1191
   03/19/2020 18:00:00      0.059     0.030    0.1191
   03/19/2020 18:15:00      0.059     0.030    0.1191
   03/19/2020 18:30:00      0.059     0.030    0.1191
   03/19/2020 18:45:00      0.059     0.030    0.1191
   03/19/2020 19:00:00      0.059     0.030    0.1191
   03/19/2020 19:15:00      0.059     0.030    0.1191
   03/19/2020 19:30:00      0.059     0.030    0.1191
   03/19/2020 19:45:00      0.059     0.030    0.1191
   03/19/2020 20:00:00      0.059     0.030    0.1191
  
  
  ************
  Node Results
  ************
  
  <<< Node J1 >>>
  ----------------------------------------------------------------
                           Inflow  Flooding     Depth      Head
  Date        Time            CFS       CFS      feet      feet
  ----------------------------------------------------------------
   03/18/2020 20:15:00      0.000     0.000     0.000    96.000
   03/18/2020 20:30:00      0.000     0.000     0.000    96.000
   03/18/2020 20:45:00      0.000     0.000     0.000    96.000
   03/18/2020 21:00:00      0.000     0.000     0.000    96.000
   03/18/2020 21:15:00      0.000     0.000     0.000    96.000
   03/18/2020 21:30:00      0.000     0.000     0.000    96.000
   03/18/2020 21:45:00      0.000     0.000     0.000    96.000
   03/18/2020 22:00:00      0.000     0.000     0.000    96.000
   03/18/2020 22:15:00      0.000     0.000     0.000    96.000
   03/18/2020 22:30:00      0.000     0.000     0.000    96.000
   03/18/2020 22:45:00      0.000     0.000     0.000    96.000
   03/18/2020 23:00:00      0.000     0.000     0.000    96.000
   03/18/2020 23:15:00      0.000     0.000     0.000    96.000
   03/18/2020 23:30:00      0.000     0.000     0.000    96.000
   03/18/2020 23:45:00      0.000     0.000     0.000    96.000
   03/19/2020 00:00:00      0.000     0.000     0.000    96.000
   03/19/2020 00:15:00      0.000     0.000     0.000    96.000
   03/19/2020 00:30:00      0.000     0.000     0.000    96.000
   03/19/2020 00:45:00      0.000     0.000     0.000    96.000
   03/19/2020 01:00:00      0.000     0.000     0.000    96.000
   03/19/2020 01:15:00      0.005     0.000     0.014    96.014
   03/19/2020 01:30:00      0.017     0.000     0.038    96.038
   03/19/2020 01:45:00      0.025     0.000     0.047    96.046
   03/19/2020 02:00:00      0.032     0.000     0.053    96.053
   03/19/2020 02:15:00      0.067     0.000     0.074    96.074
   03/19/2020 02:30:00      0.097     0.000     0.090    96.090
   03/19/2020 02:45:00      0.111     0.000     0.097    96.098
   03/19/2020 03:00:00      0.116     0.000     0.099    96.099
   03/19/2020 03:15:00      0.118     0.000     0.100    96.101
   03/19/2020 03:30:00      0.119     0.000     0.100    96.101
   03/19/2020 03:45:00      0.119     0.000     0.100    96.101
   03/19/2020 04:00:00      0.119     0.000     0.100    96.101
   03/19/2020 04:15:00      0.119     0.000     0.100    96.101
   03/19/2020 04:30:00      0.119     0.000     0.100    96.101
   03/19/2020 04:45:00      0.119     0.000     0.100    96.101
   03/19/2020 05:00:00      0.119     0.000     0.100    96.101
   03/19/2020 05:15:00      0.119     0.000     0.100    96.101
   03/19/2020 05:30:00      0.119     0.000     0.100    96.101
   03/19/2020 05:45:00      0.119     0.000     0.100    96.101
   03/19/2020 06:00:00      0.119     0.000     0.100    96.101
   03/19/2020 06:15:00      0.119     0.000     0.100    96.101
   03/19/2020 06:30:00      0.119     0.000     0.100    96.101
   03/19/2020 06:45:00      0.119     0.000     0.100    96.101
   03/19/2020 07:00:00      0.119     0.000     0.100    96.101
   03/19/2020 07:15:00      0.119     0.000     0.100    96.101
   03/19/2020 07:30:00      0.119     0.000     0.100    96.101
   03/19/2020 07:45:00      0.119     0.000     0.100    96.101
   03/19/2020 08:00:00      0.119     0.000     0.100    96.101
   03/19/2020 08:15:00      0.119     0.000     0.100    96.101
   03/19/2020 08:30:00      0.119     0.000     0.100    96.101
   03/19/2020 08:45:00      0.119     0.000     0.100    96.101
   03/19/2020 09:00:00      0.119     0.000     0.100    96.101
   03/19/2020 09:15:00      0.119     0.000     0.100    96.101
[...]
   03/19/2020 18:00:00      0.119     0.712     0.266     0.213
   03/19/2020 18:15:00      0.119     0.712     0.266     0.213
   03/19/2020 18:30:00      0.119     0.712     0.266     0.213
   03/19/2020 18:45:00      0.119     0.712     0.266     0.213
   03/19/2020 19:00:00      0.119     0.712     0.266     0.213
   03/19/2020 19:15:00      0.119     0.712     0.266     0.213
   03/19/2020 19:30:00      0.119     0.712     0.266     0.213
   03/19/2020 19:45:00      0.119     0.712     0.266     0.213
   03/19/2020 20:00:00      0.119     0.712     0.266     0.213
  
  
  <<< Link C2 >>>
  ----------------------------------------------------------------
                             Flow  Velocity     Depth  Capacity/
  Date        Time            CFS    ft/sec      feet   Setting 
  ----------------------------------------------------------------
   03/18/2020 20:15:00      0.000     0.000     0.000     0.000
   03/18/2020 20:30:00      0.000     0.000     0.000     0.000
   03/18/2020 20:45:00      0.000     0.000     0.000     0.000
   03/18/2020 21:00:00      0.000     0.000     0.000     0.000
   03/18/2020 21:15:00      0.000     0.000     0.000     0.000
   03/18/2020 21:30:00      0.000     0.000     0.000     0.000
   03/18/2020 21:45:00      0.000     0.000     0.000     0.000
   03/18/2020 22:00:00      0.000     0.000     0.000     0.000
   03/18/2020 22:15:00      0.000     0.000     0.000     0.000
   03/18/2020 22:30:00      0.000     0.000     0.000     0.000
   03/18/2020 22:45:00      0.000     0.000     0.000     0.000
   03/18/2020 23:00:00      0.000     0.000     0.000     0.000
   03/18/2020 23:15:00      0.000     0.000     0.000     0.000
   03/18/2020 23:30:00      0.000     0.000     0.000     0.000
   03/18/2020 23:45:00      0.000     0.000     0.000     0.000
   03/19/2020 00:00:00      0.000     0.000     0.000     0.000
   03/19/2020 00:15:00      0.000     0.000     0.000     0.000
   03/19/2020 00:30:00      0.000     0.000     0.000     0.000
   03/19/2020 00:45:00      0.000     0.000     0.000     0.000
   03/19/2020 01:00:00      0.000     0.000     0.000     0.000
   03/19/2020 01:15:00      0.024     1.282     0.040     0.016
   03/19/2020 01:30:00      0.153     2.442     0.132     0.079
   03/19/2020 01:45:00      0.241     2.722     0.170     0.113
   03/19/2020 02:00:00      0.303     2.916     0.189     0.132
   03/19/2020 02:15:00      0.624     3.622     0.269     0.218
   03/19/2020 02:30:00      0.952     4.079     0.337     0.297
   03/19/2020 02:45:00      1.105     4.254     0.365     0.331
   03/19/2020 03:00:00      1.161     4.315     0.375     0.343
   03/19/2020 03:15:00      1.181     4.335     0.378     0.347
   03/19/2020 03:30:00      1.188     4.342     0.380     0.348
   03/19/2020 03:45:00      1.190     4.344     0.380     0.349
   03/19/2020 04:00:00      1.191     4.345     0.380     0.349
   03/19/2020 04:15:00      1.191     4.345     0.380     0.349
   03/19/2020 04:30:00      1.191     4.345     0.380     0.349
   03/19/2020 04:45:00      1.191     4.345     0.380     0.349
   03/19/2020 05:00:00      1.191     4.345     0.380     0.349
   03/19/2020 05:15:00      1.191     4.345     0.380     0.349
   03/19/2020 05:30:00      1.191     4.345     0.380     0.349
   03/19/2020 05:45:00      1.191     4.345     0.380     0.349
   03/19/2020 06:00:00      1.191     4.345     0.380     0.349
   03/19/2020 06:15:00      1.191     4.345     0.380     0.349
   03/19/2020 06:30:00      1.191     4.345     0.380     0.349
   03/19/2020 06:45:00      1.191     4.345     0.380     0.349
   03/19/2020 07:00:00      1.191     4.345     0.380     0.349
   03/19/2020 07:15:00      1.191     4.345     0.380     0.349
   03/19/2020 07:30:00      1.191     4.345     0.380     0.349
   03/19/2020 07:45:00      1.191     4.345     0.380     0.349
   03/19/2020 08:00:00      1.191     4.345     0.380     0.349
   03/19/2020 08:15:00      1.191     4.345     0.380     0.349
   03/19/2020 08:30:00      1.191     4.345     0.380     0.349
   03/19/2020 08:45:00      1.191     4.345     0.380     0.349
   03/19/2020 09:00:00      1.191     4.345     0.380     0.349
   03/19/2020 09:15:00      1.191     4.345     0.380     0.349
   03/19/2020 09:30:00      1.191     4.345     0.380     0.349
   03/19/2020 09:45:00      1.191     4.345     0.380     0.349
   03/19/2020 10:00:00      1.191     4.345     0.380     0.349
   03/19/2020 10:15:00      1.191     4.345     0.380     0.349
   03/19/2020 10:30:00      1.191     4.345     0.380     0.349
   03/19/2020 10:45:00      1.191     4.345     0.380     0.349
   03/19/2020 11:00:00      1.191     4.345     0.380     0.349
   03/19/2020 11:15:00      1.191     4.345     0.380     0.349
   03/19/2020 11:30:00      1.191     4.345     0.380     0.349
   03/19/2020 11:45:00      1.191     4.345     0.380     0.349
   03/19/2020 12:00:00      1.191     4.345     0.380     0.349
   03/19/2020 12:15:00      1.191     4.345     0.380     0.349
   03/19/2020 12:30:00      1.191     4.345     0.380     0.349
   03/19/2020 12:45:00      1.191     4.345     0.380     0.349
   03/19/2020 13:00:00      1.191     4.345     0.380     0.349
   03/19/2020 13:15:00      1.191     4.345     0.380     0.349
   03/19/2020 13:30:00      1.191     4.345     0.380     0.349
   03/19/2020 13:45:00      1.191     4.345     0.380     0.349
   03/19/2020 14:00:00      1.191     4.345     0.380     0.349
   03/19/2020 14:15:00      1.191     4.345     0.380     0.349
   03/19/2020 14:30:00      1.191     4.345     0.380     0.349
   03/19/2020 14:45:00      1.191     4.345     0.380     0.349
   03/19/2020 15:00:00      1.191     4.345     0.380     0.349
   03/19/2020 15:15:00      1.191     4.345     0.380     0.349
   03/19/2020 15:30:00      1.191     4.345     0.380     0.349
   03/19/2020 15:45:00      1.191     4.345     0.380     0.349
   03/19/2020 16:00:00      1.191     4.345     0.380     0.349
   03/19/2020 16:15:00      1.191     4.345     0.380     0.349
   03/19/2020 16:30:00      1.191     4.345     0.380     0.349
   03/19/2020 16:45:00      1.191     4.345     0.380     0.349
   03/19/2020 17:00:00      1.191     4.345     0.380     0.349
   03/19/2020 17:15:00      1.191     4.345     0.380     0.349
   03/19/2020 17:30:00      1.191     4.345     0.380     0.349
   03/19/2020 17:45:00      1.191     4.345     0.380     0.349
   03/19/2020 18:00:00      1.191     4.345     0.380     0.349
   03/19/2020 18:15:00      1.191     4.345     0.380     0.349
   03/19/2020 18:30:00      1.191     4.345     0.380     0.349
   03/19/2020 18:45:00      1.191     4.345     0.380     0.349
   03/19/2020 19:00:00      1.191     4.345     0.380     0.349
   03/19/2020 19:15:00      1.191     4.345     0.380     0.349
   03/19/2020 19:30:00      1.191     4.345     0.380     0.349
   03/19/2020 19:45:00      1.191     4.345     0.380     0.349
   03/19/2020 20:00:00      1.191     4.345     0.380     0.349
  
  
  <<< Link C4 >>>
  ----------------------------------------------------------------
                             Flow  Velocity     Depth  Capacity/
  Date        Time            CFS    ft/sec      feet   Setting 
  ----------------------------------------------------------------
   03/18/2020 20:15:00      0.000     0.000     0.000     0.000
   03/18/2020 20:30:00      0.000     0.000     0.000     0.000
   03/18/2020 20:45:00      0.000     0.000     0.000     0.000
   03/18/2020 21:00:00      0.000     0.000     0.000     0.000
   03/18/2020 21:15:00      0.000     0.000     0.000     0.000
   03/18/2020 21:30:00      0.000     0.000     0.000     0.000
   03/18/2020 21:45:00      0.000     0.000     0.000     0.000
   03/18/2020 22:00:00      0.000     0.000     0.000     0.000
   03/18/2020 22:15:00      0.000     0.000     0.000     0.000
   03/18/2020 22:30:00      0.000     0.000     0.000     0.000
   03/18/2020 22:45:00      0.000     0.000     0.000     0.000
   03/18/2020 23:00:00      0.000     0.000     0.000     0.000
   03/18/2020 23:15:00      0.000     0.000     0.000     0.000
   03/18/2020 23:30:00      0.000     0.000     0.000     0.000
   03/18/2020 23:45:00      0.000     0.000     0.000     0.000
   03/19/2020 00:00:00      0.000     0.000     0.000     0.000
   03/19/2020 00:15:00      0.000     0.000     0.000     0.000
   03/19/2020 00:30:00      0.000     0.000     0.000     0.000
   03/19/2020 00:45:00      0.000     0.000     0.000     0.000
   03/19/2020 01:00:00      0.000     0.000     0.000     0.000
   03/19/2020 01:15:00      0.010     0.646     0.021     0.004
   03/19/2020 01:30:00      0.134     2.193     0.111     0.034
   03/19/2020 01:45:00      0.245     2.684     0.149     0.052
   03/19/2020 02:00:00      0.304     2.852     0.165     0.060
   03/19/2020 02:15:00      0.615     3.503     0.231     0.098
   03/19/2020 02:30:00      0.982     4.047     0.292     0.137
   03/19/2020 02:45:00      1.154     4.248     0.317     0.154
   03/19/2020 03:00:00      1.218     4.315     0.325     0.160
   03/19/2020 03:15:00      1.239     4.338     0.328     0.162
   03/19/2020 03:30:00      1.247     4.346     0.329     0.162
   03/19/2020 03:45:00      1.249     4.349     0.329     0.163
   03/19/2020 04:00:00      1.250     4.350     0.329     0.163
   03/19/2020 04:15:00      1.250     4.350     0.329     0.163
   03/19/2020 04:30:00      1.250     4.350     0.329     0.163
   03/19/2020 04:45:00      1.251     4.351     0.329     0.163
   03/19/2020 05:00:00      1.251     4.351     0.329     0.163
   03/19/2020 05:15:00      1.251     4.351     0.329     0.163
   03/19/2020 05:30:00      1.251     4.351     0.329     0.163
   03/19/2020 05:45:00      1.251     4.351     0.329     0.163
   03/19/2020 06:00:00      1.251     4.351     0.329     0.163
   03/19/2020 06:15:00      1.251     4.351     0.329     0.163
   03/19/2020 06:30:00      1.251     4.351     0.329     0.163
   03/19/2020 06:45:00      1.251     4.351     0.329     0.163
   03/19/2020 07:00:00      1.251     4.351     0.329     0.163
   03/19/2020 07:15:00      1.251     4.351     0.329     0.163
   03/19/2020 07:30:00      1.251     4.351     0.329     0.163
   03/19/2020 07:45:00      1.251     4.351     0.329     0.163
   03/19/2020 08:00:00      1.251     4.351     0.329     0.163
   03/19/2020 08:15:00      1.251     4.351     0.329     0.163
   03/19/2020 08:30:00      1.251     4.351     0.329     0.163
   03/19/2020 08:45:00      1.251     4.351     0.329     0.163
   03/19/2020 09:00:00      1.251     4.351     0.329     0.163
   03/19/2020 09:15:00      1.251     4.351     0.329     0.163
   03/19/2020 09:30:00      1.251     4.351     0.329     0.163
   03/19/2020 09:45:00      1.251     4.351     0.329     0.163
   03/19/2020 10:00:00      1.251     4.351     0.329     0.163
   03/19/2020 10:15:00      1.251     4.351     0.329     0.163
   03/19/2020 10:30:00      1.251     4.351     0.329     0.163
   03/19/2020 10:45:00      1.251     4.351     0.329     0.163
   03/19/2020 11:00:00      1.251     4.351     0.329     0.163
   03/19/2020 11:15:00      1.251     4.351     0.329     0.163
   03/19/2020 11:30:00      1.251     4.351     0.329     0.163
   03/19/2020 11:45:00      1.251     4.351     0.329     0.163
   03/19/2020 12:00:00      1.251     4.351     0.329     0.163
   03/19/2020 12:15:00      1.251     4.351     0.329     0.163
   03/19/2020 12:30:00      1.251     4.351     0.329     0.163
   03/19/2020 12:45:00      1.251     4.351     0.329     0.163
   03/19/2020 13:00:00      1.251     4.351     0.329     0.163
   03/19/2020 13:15:00      1.251     4.351     0.329     0.163
   03/19/2020 13:30:00      1.251     4.351     0.329     0.163
   03/19/2020 13:45:00      1.251     4.351     0.329     0.163
   03/19/2020 14:00:00      1.251     4.351     0.329     0.163
   03/19/2020 14:15:00      1.251     4.351     0.329     0.163
   03/19/2020 14:30:00      1.251     4.351     0.329     0.163
   03/19/2020 14:45:00      1.251     4.351     0.329     0.163
   03/19/2020 15:00:00      1.251     4.351     0.329     0.163
   03/19/2020 15:15:00      1.251     4.351     0.329     0.163
   03/19/2020 15:30:00      1.251     4.351     0.329     0.163
   03/19/2020 15:45:00      1.251     4.351     0.329     0.163
   03/19/2020 16:00:00      1.251     4.351     0.329     0.163
   03/19/2020 16:15:00      1.251     4.351     0.329     0.163
   03/19/2020 16:30:00      1.251     4.351     0.329     0.163
   03/19/2020 16:45:00      1.251     4.351     0.329     0.163
   03/19/2020 17:00:00      1.251     4.351     0.329     0.163
   03/19/2020 17:15:00      1.251     4.351     0.329     0.163
   03/19/2020 17:30:00      1.251     4.351     0.329     0.163
   03/19/2020 17:45:00      1.251     4.351     0.329     0.163
   03/19/2020 18:00:00      1.251     4.351     0.329     0.163
   03/19/2020 18:15:00      1.251     4.351     0.329     0.163
   03/19/2020 18:30:00      1.251     4.351     0.329     0.163
   03/19/2020 18:45:00      1.251     4.351     0.329     0.163
   03/19/2020 19:00:00      1.251     4.351     0.329     0.163
   03/19/2020 19:15:00      1.251     4.351     0.329     0.163
   03/19/2020 19:30:00      1.251     4.351     0.329     0.163
   03/19/2020 19:45:00      1.251     4.351     0.329     0.163
   03/19/2020 20:00:00      1.251     4.351     0.329     0.163
  
  
  <<< Link C3 >>>
  ----------------------------------------------------------------
                             Flow  Velocity     Depth  Capacity/
  Date        Time            CFS    ft/sec      feet   Setting 
  ----------------------------------------------------------------
   03/18/2020 20:15:00      0.000     0.000     0.000     0.000
   03/18/2020 20:30:00      0.000     0.000     0.000     0.000
   03/18/2020 20:45:00      0.000     0.000     0.000     0.000
   03/18/2020 21:00:00      0.000     0.000     0.000     0.000
   03/18/2020 21:15:00      0.000     0.000     0.000     0.000
   03/18/2020 21:30:00      0.000     0.000     0.000     0.000
   03/18/2020 21:45:00      0.000     0.000     0.000     0.000
   03/18/2020 22:00:00      0.000     0.000     0.000     0.000
   03/18/2020 22:15:00      0.000     0.000     0.000     0.000
   03/18/2020 22:30:00      0.000     0.000     0.000     0.000
   03/18/2020 22:45:00      0.000     0.000     0.000     0.000
   03/18/2020 23:00:00      0.000     0.000     0.000     0.000
   03/18/2020 23:15:00      0.000     0.000     0.000     0.000
   03/18/2020 23:30:00      0.000     0.000     0.000     0.000
   03/18/2020 23:45:00      0.000     0.000     0.000     0.000
   03/19/2020 00:00:00      0.000     0.000     0.000     0.000
   03/19/2020 00:15:00      0.000     0.000     0.000     0.000
   03/19/2020 00:30:00      0.000     0.000     0.000     0.000
   03/19/2020 00:45:00      0.000     0.000     0.000     0.000
   03/19/2020 01:00:00      0.000     0.000     0.000     0.000
   03/19/2020 01:15:00      0.003     0.412     0.019     0.006
   03/19/2020 01:30:00      0.011     0.429     0.072     0.033
   03/19/2020 01:45:00      0.014     0.375     0.094     0.048
   03/19/2020 02:00:00      0.017     0.394     0.104     0.055
   03/19/2020 02:15:00      0.041     0.558     0.147     0.092
   03/19/2020 02:30:00      0.055     0.562     0.183     0.125
   03/19/2020 02:45:00      0.059     0.541     0.196     0.138
   03/19/2020 03:00:00      0.059     0.531     0.200     0.142
   03/19/2020 03:15:00      0.060     0.526     0.202     0.144
   03/19/2020 03:30:00      0.060     0.525     0.202     0.145
   03/19/2020 03:45:00      0.060     0.524     0.202     0.145
   03/19/2020 04:00:00      0.060     0.524     0.202     0.145
   03/19/2020 04:15:00      0.060     0.524     0.202     0.145
   03/19/2020 04:30:00      0.060     0.524     0.202     0.145
   03/19/2020 04:45:00      0.060     0.524     0.202     0.145
   03/19/2020 05:00:00      0.060     0.524     0.202     0.145
   03/19/2020 05:15:00      0.060     0.524     0.202     0.145
   03/19/2020 05:30:00      0.060     0.524     0.202     0.145
   03/19/2020 05:45:00      0.060     0.524     0.202     0.145
   03/19/2020 06:00:00      0.060     0.524     0.202     0.145
   03/19/2020 06:15:00      0.060     0.524     0.202     0.145
   03/19/2020 06:30:00      0.060     0.524     0.202     0.145
   03/19/2020 06:45:00      0.060     0.524     0.202     0.145
   03/19/2020 07:00:00      0.060     0.524     0.202     0.145
   03/19/2020 07:15:00      0.060     0.524     0.202     0.145
   03/19/2020 07:30:00      0.060     0.524     0.202     0.145
   03/19/2020 07:45:00      0.060     0.524     0.202     0.145
   03/19/2020 08:00:00      0.060     0.524     0.202     0.145
   03/19/2020 08:15:00      0.060     0.524     0.202     0.145
   03/19/2020 08:30:00      0.060     0.524     0.202     0.145
   03/19/2020 08:45:00      0.060     0.524     0.202     0.145
   03/19/2020 09:00:00      0.060     0.524     0.202     0.145
   03/19/2020 09:15:00      0.060     0.524     0.202     0.145
   03/19/2020 09:30:00      0.060     0.524     0.202     0.145
   03/19/2020 09:45:00      0.060     0.524     0.202     0.145
   03/19/2020 10:00:00      0.060     0.524     0.202     0.145
   03/19/2020 10:15:00      0.060     0.524     0.202     0.145
   03/19/2020 10:30:00      0.060     0.524     0.202     0.145
   03/19/2020 10:45:00      0.060     0.524     0.202     0.145
   03/19/2020 11:00:00      0.060     0.524     0.202     0.145
   03/19/2020 11:15:00      0.060     0.524     0.202     0.145
   03/19/2020 11:30:00      0.060     0.524     0.202     0.145
   03/19/2020 11:45:00      0.060     0.524     0.202     0.145
   03/19/2020 12:00:00      0.060     0.524     0.202     0.145
   03/19/2020 12:15:00      0.060     0.524     0.202     0.145
   03/19/2020 12:30:00      0.060     0.524     0.202     0.145
   03/19/2020 12:45:00      0.060     0.524     0.202     0.145
   03/19/2020 13:00:00      0.060     0.524     0.202     0.145
   03/19/2020 13:15:00      0.060     0.524     0.202     0.145
   03/19/2020 13:30:00      0.060     0.524     0.202     0.145
   03/19/2020 13:45:00      0.060     0.524     0.202     0.145
   03/19/2020 14:00:00      0.060     0.524     0.202     0.145
   03/19/2020 14:15:00      0.060     0.524     0.202     0.145
   03/19/2020 14:30:00      0.060     0.524     0.202     0.145
   03/19/2020 14:45:00      0.060     0.524     0.202     0.145
   03/19/2020 15:00:00      0.060     0.524     0.202     0.145
   03/19/2020 15:15:00      0.060     0.524     0.202     0.145
   03/19/2020 15:30:00      0.060     0.524     0.202     0.145
   03/19/2020 15:45:00      0.060     0.524     0.202     0.145
   03/19/2020 16:00:00      0.060     0.524     0.202     0.145
   03/19/2020 16:15:00      0.060     0.524     0.202     0.145
   03/19/2020 16:30:00      0.060     0.524     0.202     0.145
   03/19/2020 16:45:00      0.060     0.524     0.202     0.145
   03/19/2020 17:00:00      0.060     0.524     0.202     0.145
   03/19/2020 17:15:00      0.060     0.524     0.202     0.145
   03/19/2020 17:30:00      0.060     0.524     0.202     0.145
   03/19/2020 17:45:00      0.060     0.524     0.202     0.145
   03/19/2020 18:00:00      0.060     0.524     0.202     0.145
   03/19/2020 18:15:00      0.060     0.524     0.202     0.145
   03/19/2020 18:30:00      0.060     0.524     0.202     0.145
   03/19/2020 18:45:00      0.060     0.524     0.202     0.145
   03/19/2020 19:00:00      0.060     0.524     0.202     0.145
   03/19/2020 19:15:00      0.060     0.524     0.202     0.145
   03/19/2020 19:30:00      0.060     0.524     0.202     0.145
   03/19/2020 19:45:00      0.060     0.524     0.202     0.145
   03/19/2020 20:00:00      0.060     0.524     0.202     0.145
  

  Analysis begun on:  Fri Mar 27 12:43:19 2020
  Analysis ended on:  Fri Mar 27 12:43:19 2020
  Total elapsed time: < 1 sec